
     RDKit          3D

 15 16  0  0  0  0  0  0  0  0999 V2000
    1.6998    0.8657   -0.0476 C   0  0  0  0  0  0  0  0  0  0  0  0
    2.3125   -0.3579    0.0044 N   0  0  0  0  0  0  0  0  0  0  0  0
    1.4482   -1.4004    0.0239 N   0  0  0  0  0  0  0  0  0  0  0  0
    0.2662   -0.8079   -0.0159 C   0  0  0  0  0  0  0  0  0  0  0  0
    0.3500    0.5975   -0.0593 C   0  0  0  0  0  0  0  0  0  0  0  0
   -1.0412    1.1720   -0.1506 C   0  0  0  0  0  0  0  0  0  0  0  0
   -1.9250    0.0135    0.1675 N   0  0  0  0  0  0  0  0  0  0  0  0
   -1.1732   -1.2485   -0.0701 C   0  0  0  0  0  0  0  0  0  0  0  0
    2.2777    1.7801   -0.0671 H   0  0  0  0  0  0  0  0  0  0  0  0
    3.3005   -0.5451    0.0624 H   0  0  0  0  0  0  0  0  0  0  0  0
   -1.2568    1.5324   -1.1646 H   0  0  0  0  0  0  0  0  0  0  0  0
   -1.2418    1.9939    0.5438 H   0  0  0  0  0  0  0  0  0  0  0  0
   -2.1551    0.0591    1.1539 H   0  0  0  0  0  0  0  0  0  0  0  0
   -1.4394   -2.0005    0.6784 H   0  0  0  0  0  0  0  0  0  0  0  0
   -1.4224   -1.6538   -1.0589 H   0  0  0  0  0  0  0  0  0  0  0  0
  2  1  1  0
  3  2  1  0
  4  3  2  0
  5  4  1  0
  5  1  2  0
  6  5  1  0
  7  6  1  0
  8  7  1  0
  8  4  1  0
  9  1  1  0
 10  2  1  0
 11  6  1  0
 12  6  1  0
 13  7  1  0
 14  8  1  0
 15  8  1  0
M  END
