
     RDKit          3D

 23 24  0  0  0  0  0  0  0  0999 V2000
    2.0704    0.6980    0.9827 C   0  0  0  0  0  0  0  0  0  0  0  0
    0.6833    1.3116    0.7174 C   0  0  0  0  0  0  0  0  0  0  0  0
   -0.0264    0.6168   -0.4461 C   0  0  2  0  0  0  0  0  0  0  0  0
   -1.4861    1.0849   -0.6398 C   0  0  0  0  0  0  0  0  0  0  0  0
   -2.2246   -0.1522   -0.9119 N   0  0  0  0  0  0  0  0  0  0  0  0
   -1.6464   -1.1453   -0.0055 C   0  0  0  0  0  0  0  0  0  0  0  0
   -0.1415   -0.9183   -0.1922 C   0  0  2  0  0  0  0  0  0  0  0  0
    0.7540   -1.3694    0.9686 C   0  0  0  0  0  0  0  0  0  0  0  0
    2.0897   -0.7747    0.8983 N   0  0  0  0  0  0  0  0  0  0  0  0
    2.4169    1.0089    1.9778 H   0  0  0  0  0  0  0  0  0  0  0  0
    2.7940    1.0944    0.2596 H   0  0  0  0  0  0  0  0  0  0  0  0
    0.0618    1.2191    1.6181 H   0  0  0  0  0  0  0  0  0  0  0  0
    0.7867    2.3870    0.5252 H   0  0  0  0  0  0  0  0  0  0  0  0
    0.5453    0.7930   -1.3654 H   0  0  0  0  0  0  0  0  0  0  0  0
   -1.8327    1.5827    0.2844 H   0  0  0  0  0  0  0  0  0  0  0  0
   -1.6000    1.7935   -1.4672 H   0  0  0  0  0  0  0  0  0  0  0  0
   -3.2241   -0.0398   -0.7806 H   0  0  0  0  0  0  0  0  0  0  0  0
   -1.9667   -2.1571   -0.2762 H   0  0  0  0  0  0  0  0  0  0  0  0
   -1.9213   -0.9677    1.0523 H   0  0  0  0  0  0  0  0  0  0  0  0
    0.1740   -1.4480   -1.1001 H   0  0  0  0  0  0  0  0  0  0  0  0
    0.8576   -2.4606    0.9781 H   0  0  0  0  0  0  0  0  0  0  0  0
    0.3058   -1.0923    1.9317 H   0  0  0  0  0  0  0  0  0  0  0  0
    2.5306   -1.0643    0.0325 H   0  0  0  0  0  0  0  0  0  0  0  0
  2  1  1  0
  3  2  1  0
  4  3  1  0
  5  4  1  0
  6  5  1  0
  7  6  1  0
  7  3  1  0
  8  7  1  0
  9  8  1  0
  9  1  1  0
 10  1  1  0
 11  1  1  0
 12  2  1  0
 13  2  1  0
  3 14  1  6
 15  4  1  0
 16  4  1  0
 17  5  1  0
 18  6  1  0
 19  6  1  0
  7 20  1  6
 21  8  1  0
 22  8  1  0
 23  9  1  0
M  END
