
     RDKit          3D

 20 21  0  0  0  0  0  0  0  0999 V2000
   -1.7650   -0.2629    0.1880 C   0  0  0  0  0  0  0  0  0  0  0  0
   -0.8541   -1.0072   -0.8153 C   0  0  0  0  0  0  0  0  0  0  0  0
    0.6351   -0.7398   -0.6096 C   0  0  2  0  0  0  0  0  0  0  0  0
    1.2664   -1.0247    0.7750 C   0  0  0  0  0  0  0  0  0  0  0  0
    1.4983    0.4268    0.9913 N   0  0  0  0  0  0  0  0  0  0  0  0
    0.9728    0.7570   -0.3623 C   0  0  2  0  0  0  0  0  0  0  0  0
   -0.2751    1.6380   -0.2749 C   0  0  0  0  0  0  0  0  0  0  0  0
   -1.2730    1.0578    0.6192 N   0  0  0  0  0  0  0  0  0  0  0  0
   -2.7592   -0.1487   -0.2656 H   0  0  0  0  0  0  0  0  0  0  0  0
   -1.9074   -0.8730    1.0874 H   0  0  0  0  0  0  0  0  0  0  0  0
   -1.0606   -2.0844   -0.7684 H   0  0  0  0  0  0  0  0  0  0  0  0
   -1.1084   -0.6927   -1.8363 H   0  0  0  0  0  0  0  0  0  0  0  0
    1.2074   -1.1849   -1.4299 H   0  0  0  0  0  0  0  0  0  0  0  0
    2.1795   -1.6314    0.7310 H   0  0  0  0  0  0  0  0  0  0  0  0
    0.5954   -1.4628    1.5249 H   0  0  0  0  0  0  0  0  0  0  0  0
    2.4689    0.6778    1.1380 H   0  0  0  0  0  0  0  0  0  0  0  0
    1.7188    1.1809   -1.0482 H   0  0  0  0  0  0  0  0  0  0  0  0
   -0.7112    1.7777   -1.2737 H   0  0  0  0  0  0  0  0  0  0  0  0
   -0.0053    2.6307    0.1050 H   0  0  0  0  0  0  0  0  0  0  0  0
   -0.8232    0.9657    1.5242 H   0  0  0  0  0  0  0  0  0  0  0  0
  2  1  1  0
  3  2  1  0
  4  3  1  0
  5  4  1  0
  6  5  1  0
  6  3  1  0
  7  6  1  0
  8  7  1  0
  8  1  1  0
  9  1  1  0
 10  1  1  0
 11  2  1  0
 12  2  1  0
  3 13  1  6
 14  4  1  0
 15  4  1  0
 16  5  1  0
  6 17  1  6
 18  7  1  0
 19  7  1  0
 20  8  1  0
M  END
