
     RDKit          3D

 20 21  0  0  0  0  0  0  0  0999 V2000
    1.5990   -0.2449   -0.4678 C   0  0  0  0  0  0  0  0  0  0  0  0
    0.8400    0.9383   -1.0798 C   0  0  0  0  0  0  0  0  0  0  0  0
   -0.5273    1.0932   -0.3955 C   0  0  1  0  0  0  0  0  0  0  0  0
   -1.3414   -0.1865   -0.6405 C   0  0  0  0  0  0  0  0  0  0  0  0
   -0.5575   -1.1324    0.2752 C   0  0  2  0  0  0  0  0  0  0  0  0
   -0.4315   -0.2701    1.5567 C   0  0  0  0  0  0  0  0  0  0  0  0
   -0.3460    1.1307    1.0755 N   0  0  0  0  0  0  0  0  0  0  0  0
    0.7264   -1.4255   -0.3766 N   0  0  0  0  0  0  0  0  0  0  0  0
    1.9751    0.0701    0.5193 H   0  0  0  0  0  0  0  0  0  0  0  0
    2.4657   -0.5035   -1.0861 H   0  0  0  0  0  0  0  0  0  0  0  0
    1.4320    1.8506   -0.9461 H   0  0  0  0  0  0  0  0  0  0  0  0
    0.6889    0.7785   -2.1549 H   0  0  0  0  0  0  0  0  0  0  0  0
   -1.0250    2.0091   -0.7318 H   0  0  0  0  0  0  0  0  0  0  0  0
   -2.3750   -0.0661   -0.2923 H   0  0  0  0  0  0  0  0  0  0  0  0
   -1.3403   -0.5274   -1.6794 H   0  0  0  0  0  0  0  0  0  0  0  0
   -1.0698   -2.0807    0.4662 H   0  0  0  0  0  0  0  0  0  0  0  0
    0.4610   -0.5416    2.1350 H   0  0  0  0  0  0  0  0  0  0  0  0
   -1.3073   -0.4195    2.2019 H   0  0  0  0  0  0  0  0  0  0  0  0
   -1.0749    1.6930    1.4972 H   0  0  0  0  0  0  0  0  0  0  0  0
    1.2081   -2.1652    0.1237 H   0  0  0  0  0  0  0  0  0  0  0  0
  2  1  1  0
  3  2  1  0
  4  3  1  0
  5  4  1  0
  6  5  1  0
  7  6  1  0
  7  3  1  0
  8  5  1  0
  8  1  1  0
  9  1  1  0
 10  1  1  0
 11  2  1  0
 12  2  1  0
  3 13  1  6
 14  4  1  0
 15  4  1  0
  5 16  1  1
 17  6  1  0
 18  6  1  0
 19  7  1  0
 20  8  1  0
M  END
