
     RDKit          3D

 20 21  0  0  0  0  0  0  0  0999 V2000
   -1.7147    0.0675    0.4493 C   0  0  0  0  0  0  0  0  0  0  0  0
   -1.1681   -0.9807   -0.5467 C   0  0  0  0  0  0  0  0  0  0  0  0
    0.3534   -1.0662   -0.5930 C   0  0  2  0  0  0  0  0  0  0  0  0
    1.0698   -1.4228    0.6637 N   0  0  0  0  0  0  0  0  0  0  0  0
    1.9124   -0.1979    0.5442 C   0  0  0  0  0  0  0  0  0  0  0  0
    1.0875    0.2996   -0.6640 C   0  0  2  0  0  0  0  0  0  0  0  0
    0.1483    1.4571   -0.3322 C   0  0  0  0  0  0  0  0  0  0  0  0
   -0.6937    1.0640    0.7961 N   0  0  0  0  0  0  0  0  0  0  0  0
   -2.6126    0.5325    0.0070 H   0  0  0  0  0  0  0  0  0  0  0  0
   -2.0343   -0.4204    1.3780 H   0  0  0  0  0  0  0  0  0  0  0  0
   -1.5883   -1.9674   -0.3170 H   0  0  0  0  0  0  0  0  0  0  0  0
   -1.5030   -0.7333   -1.5621 H   0  0  0  0  0  0  0  0  0  0  0  0
    0.6445   -1.7534   -1.3972 H   0  0  0  0  0  0  0  0  0  0  0  0
    0.4484   -1.3313    1.4617 H   0  0  0  0  0  0  0  0  0  0  0  0
    1.8801    0.4579    1.4212 H   0  0  0  0  0  0  0  0  0  0  0  0
    2.9541   -0.4466    0.3122 H   0  0  0  0  0  0  0  0  0  0  0  0
    1.6459    0.4990   -1.5853 H   0  0  0  0  0  0  0  0  0  0  0  0
    0.7333    2.3372   -0.0386 H   0  0  0  0  0  0  0  0  0  0  0  0
   -0.4394    1.7343   -1.2279 H   0  0  0  0  0  0  0  0  0  0  0  0
   -1.1238    1.8710    1.2304 H   0  0  0  0  0  0  0  0  0  0  0  0
  2  1  1  0
  3  2  1  0
  4  3  1  0
  5  4  1  0
  6  5  1  0
  6  3  1  0
  7  6  1  0
  8  7  1  0
  8  1  1  0
  9  1  1  0
 10  1  1  0
 11  2  1  0
 12  2  1  0
  3 13  1  6
 14  4  1  0
 15  5  1  0
 16  5  1  0
  6 17  1  6
 18  7  1  0
 19  7  1  0
 20  8  1  0
M  END
