
     RDKit          3D

 15 16  0  0  0  0  0  0  0  0999 V2000
   -1.4621   -0.6594    0.4130 C   0  0  0  0  0  0  0  0  0  0  0  0
   -1.4895    0.5538   -0.4942 C   0  0  0  0  0  0  0  0  0  0  0  0
   -0.1891    0.0003   -0.0104 C   0  0  0  0  0  0  0  0  0  0  0  0
    0.8605    0.6423    0.8972 C   0  0  0  0  0  0  0  0  0  0  0  0
    1.8799   -0.2534    0.2910 N   0  0  0  0  0  0  0  0  0  0  0  0
    0.9527   -0.6304   -0.8075 C   0  0  0  0  0  0  0  0  0  0  0  0
   -1.7020   -1.6271   -0.0219 H   0  0  0  0  0  0  0  0  0  0  0  0
   -1.7822   -0.5322    1.4448 H   0  0  0  0  0  0  0  0  0  0  0  0
   -1.8301    1.4977   -0.0739 H   0  0  0  0  0  0  0  0  0  0  0  0
   -1.7507    0.4037   -1.5396 H   0  0  0  0  0  0  0  0  0  0  0  0
    1.0120    1.7106    0.6826 H   0  0  0  0  0  0  0  0  0  0  0  0
    0.7339    0.5036    1.9777 H   0  0  0  0  0  0  0  0  0  0  0  0
    2.7283    0.2124   -0.0111 H   0  0  0  0  0  0  0  0  0  0  0  0
    0.8943   -1.7103   -0.9887 H   0  0  0  0  0  0  0  0  0  0  0  0
    1.1439   -0.1114   -1.7587 H   0  0  0  0  0  0  0  0  0  0  0  0
  2  1  1  0
  3  2  1  0
  3  1  1  0
  4  3  1  0
  5  4  1  0
  6  5  1  0
  6  3  1  0
  7  1  1  0
  8  1  1  0
  9  2  1  0
 10  2  1  0
 11  4  1  0
 12  4  1  0
 13  5  1  0
 14  6  1  0
 15  6  1  0
M  END
