
     RDKit          3D

 20 21  0  0  0  0  0  0  0  0999 V2000
   -2.0156    0.2821    0.6370 C   0  0  0  0  0  0  0  0  0  0  0  0
   -0.6548   -0.3641    1.0271 C   0  0  0  0  0  0  0  0  0  0  0  0
    0.2188   -0.1660   -0.2213 C   0  0  2  0  0  0  0  0  0  0  0  0
    1.5161   -0.9945   -0.3266 C   0  0  0  0  0  0  0  0  0  0  0  0
    2.2645    0.2996    0.0620 C   0  0  0  0  0  0  0  0  0  0  0  0
    1.0368    1.0815   -0.2248 N   0  0  0  0  0  0  0  0  0  0  0  0
   -0.8288   -0.1974   -1.3325 C   0  0  0  0  0  0  0  0  0  0  0  0
   -1.9566    0.5829   -0.8109 N   0  0  0  0  0  0  0  0  0  0  0  0
   -2.2207    1.1987    1.2007 H   0  0  0  0  0  0  0  0  0  0  0  0
   -2.8419   -0.4102    0.8358 H   0  0  0  0  0  0  0  0  0  0  0  0
   -0.2039    0.0797    1.9223 H   0  0  0  0  0  0  0  0  0  0  0  0
   -0.7792   -1.4366    1.2187 H   0  0  0  0  0  0  0  0  0  0  0  0
    1.6098   -1.8445    0.3546 H   0  0  0  0  0  0  0  0  0  0  0  0
    1.7248   -1.3222   -1.3499 H   0  0  0  0  0  0  0  0  0  0  0  0
    3.1253    0.5849   -0.5521 H   0  0  0  0  0  0  0  0  0  0  0  0
    2.5628    0.3075    1.1196 H   0  0  0  0  0  0  0  0  0  0  0  0
    0.7892    1.7556    0.4935 H   0  0  0  0  0  0  0  0  0  0  0  0
   -1.1505   -1.2329   -1.5187 H   0  0  0  0  0  0  0  0  0  0  0  0
   -0.4520    0.2293   -2.2658 H   0  0  0  0  0  0  0  0  0  0  0  0
   -1.7442    1.5668   -0.9419 H   0  0  0  0  0  0  0  0  0  0  0  0
  2  1  1  0
  3  2  1  0
  4  3  1  0
  5  4  1  0
  6  5  1  0
  3  6  1  1
  7  3  1  0
  8  7  1  0
  8  1  1  0
  9  1  1  0
 10  1  1  0
 11  2  1  0
 12  2  1  0
 13  4  1  0
 14  4  1  0
 15  5  1  0
 16  5  1  0
 17  6  1  0
 18  7  1  0
 19  7  1  0
 20  8  1  0
M  END
