
     RDKit          3D

 14 14  0  0  0  0  0  0  0  0999 V2000
   -1.1739   -0.1610   -0.0709 C   0  0  0  0  0  0  0  0  0  0  0  0
   -0.0458   -1.1156    0.4010 C   0  0  0  0  0  0  0  0  0  0  0  0
    1.2579   -0.3535    0.0615 C   0  0  0  0  0  0  0  0  0  0  0  0
    0.9163    1.0732    0.0368 N   0  0  0  0  0  0  0  0  0  0  0  0
   -0.4232    1.1050   -0.5633 C   0  0  0  0  0  0  0  0  0  0  0  0
   -1.8492    0.0839    0.7565 H   0  0  0  0  0  0  0  0  0  0  0  0
   -1.7838   -0.6018   -0.8666 H   0  0  0  0  0  0  0  0  0  0  0  0
   -0.1132   -1.2893    1.4811 H   0  0  0  0  0  0  0  0  0  0  0  0
   -0.0908   -2.0937   -0.0896 H   0  0  0  0  0  0  0  0  0  0  0  0
    2.0723   -0.5441    0.7673 H   0  0  0  0  0  0  0  0  0  0  0  0
    1.6127   -0.6350   -0.9388 H   0  0  0  0  0  0  0  0  0  0  0  0
    0.8621    1.4175    0.9919 H   0  0  0  0  0  0  0  0  0  0  0  0
   -0.3069    1.0749   -1.6543 H   0  0  0  0  0  0  0  0  0  0  0  0
   -0.9346    2.0395   -0.3125 H   0  0  0  0  0  0  0  0  0  0  0  0
  2  1  1  0
  3  2  1  0
  4  3  1  0
  5  4  1  0
  5  1  1  0
  6  1  1  0
  7  1  1  0
  8  2  1  0
  9  2  1  0
 10  3  1  0
 11  3  1  0
 12  4  1  0
 13  5  1  0
 14  5  1  0
M  END
