
     RDKit          3D

 24 25  0  0  0  0  0  0  0  0999 V2000
    1.7253    0.0665   -1.1877 C   0  0  0  0  0  0  0  0  0  0  0  0
    0.4768   -0.7784   -0.8966 C   0  0  0  0  0  0  0  0  0  0  0  0
   -0.3026   -0.2045    0.2956 C   0  0  0  0  0  0  0  0  0  0  0  0
    0.6205   -0.0292    1.4965 C   0  0  0  0  0  0  0  0  0  0  0  0
    1.8689    0.7833    1.1181 C   0  0  0  0  0  0  0  0  0  0  0  0
    2.5983    0.2361   -0.0254 N   0  0  0  0  0  0  0  0  0  0  0  0
   -1.4627   -1.0271    0.6045 N   0  0  0  0  0  0  0  0  0  0  0  0
   -2.4964   -0.5660   -0.3320 C   0  0  0  0  0  0  0  0  0  0  0  0
   -2.0907    0.8917   -0.6845 C   0  0  0  0  0  0  0  0  0  0  0  0
   -0.8309    1.0952   -0.0503 O   0  0  0  0  0  0  0  0  0  0  0  0
    1.4157    1.0654   -1.5193 H   0  0  0  0  0  0  0  0  0  0  0  0
    2.3080   -0.3818   -2.0001 H   0  0  0  0  0  0  0  0  0  0  0  0
   -0.1685   -0.8215   -1.7828 H   0  0  0  0  0  0  0  0  0  0  0  0
    0.7623   -1.8089   -0.6501 H   0  0  0  0  0  0  0  0  0  0  0  0
    0.0661    0.4733    2.2997 H   0  0  0  0  0  0  0  0  0  0  0  0
    0.9144   -1.0255    1.8519 H   0  0  0  0  0  0  0  0  0  0  0  0
    2.5518    0.8468    1.9725 H   0  0  0  0  0  0  0  0  0  0  0  0
    1.5668    1.8064    0.8642 H   0  0  0  0  0  0  0  0  0  0  0  0
    3.0102   -0.6585    0.2265 H   0  0  0  0  0  0  0  0  0  0  0  0
   -1.7546   -0.8048    1.5527 H   0  0  0  0  0  0  0  0  0  0  0  0
   -3.4851   -0.6319    0.1303 H   0  0  0  0  0  0  0  0  0  0  0  0
   -2.5027   -1.2005   -1.2243 H   0  0  0  0  0  0  0  0  0  0  0  0
   -2.7885    1.6378   -0.2895 H   0  0  0  0  0  0  0  0  0  0  0  0
   -2.0023    1.0359   -1.7699 H   0  0  0  0  0  0  0  0  0  0  0  0
  2  1  1  0
  3  2  1  0
  4  3  1  0
  5  4  1  0
  6  5  1  0
  6  1  1  0
  7  3  1  0
  8  7  1  0
  9  8  1  0
 10  9  1  0
 10  3  1  0
 11  1  1  0
 12  1  1  0
 13  2  1  0
 14  2  1  0
 15  4  1  0
 16  4  1  0
 17  5  1  0
 18  5  1  0
 19  6  1  0
 20  7  1  0
 21  8  1  0
 22  8  1  0
 23  9  1  0
 24  9  1  0
M  END
