
     RDKit          3D

 27 29  0  0  0  0  0  0  0  0999 V2000
   -1.8638   -0.1029    0.9691 C   0  0  0  0  0  0  0  0  0  0  0  0
   -1.5820    1.2401    0.2325 C   0  0  0  0  0  0  0  0  0  0  0  0
   -0.6922    0.9483   -0.9941 C   0  0  2  0  0  0  0  0  0  0  0  0
   -1.2279   -0.2295   -1.7196 N   0  0  0  0  0  0  0  0  0  0  0  0
   -1.0431   -1.4700   -0.9224 C   0  0  0  0  0  0  0  0  0  0  0  0
   -0.7841   -1.1325    0.5605 C   0  0  1  0  0  0  0  0  0  0  0  0
    0.5405   -0.3670    0.6991 C   0  0  1  0  0  0  0  0  0  0  0  0
    1.9561   -0.9120    0.8352 C   0  0  0  0  0  0  0  0  0  0  0  0
    2.7528    0.3221    0.5738 N   0  0  0  0  0  0  0  0  0  0  0  0
    1.9154    1.3189   -0.1606 C   0  0  0  0  0  0  0  0  0  0  0  0
    0.7037    0.4871   -0.5588 C   0  0  2  0  0  0  0  0  0  0  0  0
   -1.8597    0.0456    2.0551 H   0  0  0  0  0  0  0  0  0  0  0  0
   -2.8572   -0.4859    0.7021 H   0  0  0  0  0  0  0  0  0  0  0  0
   -2.5219    1.7035   -0.0920 H   0  0  0  0  0  0  0  0  0  0  0  0
   -1.0902    1.9623    0.8965 H   0  0  0  0  0  0  0  0  0  0  0  0
   -0.6615    1.8000   -1.6831 H   0  0  0  0  0  0  0  0  0  0  0  0
   -2.2156   -0.0851   -1.9021 H   0  0  0  0  0  0  0  0  0  0  0  0
   -0.2108   -2.0557   -1.3354 H   0  0  0  0  0  0  0  0  0  0  0  0
   -1.9435   -2.0882   -1.0154 H   0  0  0  0  0  0  0  0  0  0  0  0
   -0.8357   -2.0340    1.1825 H   0  0  0  0  0  0  0  0  0  0  0  0
    0.4242    0.3171    1.5534 H   0  0  0  0  0  0  0  0  0  0  0  0
    2.1507   -1.7075    0.0988 H   0  0  0  0  0  0  0  0  0  0  0  0
    2.1799   -1.3015    1.8347 H   0  0  0  0  0  0  0  0  0  0  0  0
    3.6020    0.1141    0.0653 H   0  0  0  0  0  0  0  0  0  0  0  0
    1.6479    2.1500    0.5070 H   0  0  0  0  0  0  0  0  0  0  0  0
    2.4630    1.7334   -1.0143 H   0  0  0  0  0  0  0  0  0  0  0  0
    1.0529   -0.1704   -1.3677 H   0  0  0  0  0  0  0  0  0  0  0  0
  2  1  1  0
  3  2  1  0
  4  3  1  0
  5  4  1  0
  6  5  1  0
  6  1  1  0
  7  6  1  0
  8  7  1  0
  9  8  1  0
 10  9  1  0
 11 10  1  0
 11  7  1  0
 11  3  1  0
 12  1  1  0
 13  1  1  0
 14  2  1  0
 15  2  1  0
  3 16  1  6
 17  4  1  0
 18  5  1  0
 19  5  1  0
  6 20  1  1
  7 21  1  1
 22  8  1  0
 23  8  1  0
 24  9  1  0
 25 10  1  0
 26 10  1  0
 11 27  1  6
M  END
