
     RDKit          3D

 17 18  0  0  0  0  0  0  0  0999 V2000
    2.0209   -0.2379   -0.0986 C   0  0  0  0  0  0  0  0  0  0  0  0
    1.1101    0.9793    0.1814 C   0  0  0  0  0  0  0  0  0  0  0  0
   -0.0619    0.0429   -0.1564 C   0  0  0  0  0  0  0  0  0  0  0  0
   -1.3537    0.4193   -0.9029 C   0  0  0  0  0  0  0  0  0  0  0  0
   -2.1091   -0.4971   -0.0138 N   0  0  0  0  0  0  0  0  0  0  0  0
   -0.9897   -0.5132    0.9540 C   0  0  0  0  0  0  0  0  0  0  0  0
    0.8880   -0.8724   -0.8100 N   0  0  0  0  0  0  0  0  0  0  0  0
    2.3159   -0.7532    0.8269 H   0  0  0  0  0  0  0  0  0  0  0  0
    2.9088   -0.0770   -0.7193 H   0  0  0  0  0  0  0  0  0  0  0  0
    1.1261    1.4022    1.1896 H   0  0  0  0  0  0  0  0  0  0  0  0
    1.2312    1.7771   -0.5576 H   0  0  0  0  0  0  0  0  0  0  0  0
   -1.6056    1.4835   -0.7756 H   0  0  0  0  0  0  0  0  0  0  0  0
   -1.3822    0.1543   -1.9650 H   0  0  0  0  0  0  0  0  0  0  0  0
   -2.9883   -0.1384    0.3426 H   0  0  0  0  0  0  0  0  0  0  0  0
   -0.7466   -1.5053    1.3563 H   0  0  0  0  0  0  0  0  0  0  0  0
   -1.0999    0.1978    1.7874 H   0  0  0  0  0  0  0  0  0  0  0  0
    0.7361   -1.8619   -0.6392 H   0  0  0  0  0  0  0  0  0  0  0  0
  2  1  1  0
  3  2  1  0
  4  3  1  0
  5  4  1  0
  6  5  1  0
  6  3  1  0
  7  3  1  0
  7  1  1  0
  8  1  1  0
  9  1  1  0
 10  2  1  0
 11  2  1  0
 12  4  1  0
 13  4  1  0
 14  5  1  0
 15  6  1  0
 16  6  1  0
 17  7  1  0
M  END
