
     RDKit          3D

 29 30  0  0  0  0  0  0  0  0999 V2000
   -2.9240    0.3087   -0.3014 C   0  0  0  0  0  0  0  0  0  0  0  0
   -1.8445    1.4047   -0.4117 C   0  0  0  0  0  0  0  0  0  0  0  0
   -0.5175    0.7919   -0.8657 C   0  0  0  0  0  0  0  0  0  0  0  0
    0.0370   -0.1883    0.1981 C   0  0  0  0  0  0  0  0  0  0  0  0
    0.9242   -1.2531   -0.4758 C   0  0  0  0  0  0  0  0  0  0  0  0
    2.1206   -0.6300   -1.2194 C   0  0  0  0  0  0  0  0  0  0  0  0
    2.5602    0.6003   -0.5464 N   0  0  0  0  0  0  0  0  0  0  0  0
    2.3986    0.5297    0.9043 C   0  0  0  0  0  0  0  0  0  0  0  0
    0.8999    0.5494    1.2527 C   0  0  0  0  0  0  0  0  0  0  0  0
   -1.1117   -0.7905    0.9034 N   0  0  0  0  0  0  0  0  0  0  0  0
   -2.2706   -1.0405    0.0498 C   0  0  0  0  0  0  0  0  0  0  0  0
   -3.4701    0.2114   -1.2487 H   0  0  0  0  0  0  0  0  0  0  0  0
   -3.6549    0.5811    0.4686 H   0  0  0  0  0  0  0  0  0  0  0  0
   -1.7046    1.8835    0.5643 H   0  0  0  0  0  0  0  0  0  0  0  0
   -2.1614    2.1893   -1.1086 H   0  0  0  0  0  0  0  0  0  0  0  0
   -0.6810    0.2541   -1.8109 H   0  0  0  0  0  0  0  0  0  0  0  0
    0.2391    1.5553   -1.0652 H   0  0  0  0  0  0  0  0  0  0  0  0
    1.2878   -1.9371    0.3041 H   0  0  0  0  0  0  0  0  0  0  0  0
    0.3301   -1.8560   -1.1733 H   0  0  0  0  0  0  0  0  0  0  0  0
    2.9262   -1.3815   -1.2812 H   0  0  0  0  0  0  0  0  0  0  0  0
    1.8342   -0.3752   -2.2472 H   0  0  0  0  0  0  0  0  0  0  0  0
    3.5172    0.8184   -0.7965 H   0  0  0  0  0  0  0  0  0  0  0  0
    2.9017    1.3923    1.3539 H   0  0  0  0  0  0  0  0  0  0  0  0
    2.8720   -0.3743    1.3316 H   0  0  0  0  0  0  0  0  0  0  0  0
    0.7455    0.0707    2.2272 H   0  0  0  0  0  0  0  0  0  0  0  0
    0.5425    1.5811    1.3486 H   0  0  0  0  0  0  0  0  0  0  0  0
   -0.8174   -1.6353    1.3824 H   0  0  0  0  0  0  0  0  0  0  0  0
   -2.9733   -1.6779    0.5969 H   0  0  0  0  0  0  0  0  0  0  0  0
   -2.0058   -1.5821   -0.8763 H   0  0  0  0  0  0  0  0  0  0  0  0
  2  1  1  0
  3  2  1  0
  4  3  1  0
  5  4  1  0
  6  5  1  0
  7  6  1  0
  8  7  1  0
  9  8  1  0
  9  4  1  0
 10  4  1  0
 11 10  1  0
 11  1  1  0
 12  1  1  0
 13  1  1  0
 14  2  1  0
 15  2  1  0
 16  3  1  0
 17  3  1  0
 18  5  1  0
 19  5  1  0
 20  6  1  0
 21  6  1  0
 22  7  1  0
 23  8  1  0
 24  8  1  0
 25  9  1  0
 26  9  1  0
 27 10  1  0
 28 11  1  0
 29 11  1  0
M  END
