
     RDKit          3D

 14 15  0  0  0  0  0  0  0  0999 V2000
   -1.5163    0.0803    0.1979 C   0  0  0  0  0  0  0  0  0  0  0  0
   -0.6113   -0.6603   -0.8289 C   0  0  0  0  0  0  0  0  0  0  0  0
    0.5746    0.0585   -0.1905 C   0  0  0  0  0  0  0  0  0  0  0  0
   -0.3467    1.0609    0.5003 C   0  0  0  0  0  0  0  0  0  0  0  0
    1.8389   -0.5023    0.2848 C   0  0  0  0  0  0  0  0  0  0  0  0
    1.7844    0.3812   -0.8477 O   0  0  0  0  0  0  0  0  0  0  0  0
   -2.4379    0.5217   -0.1901 H   0  0  0  0  0  0  0  0  0  0  0  0
   -1.7583   -0.5483    1.0598 H   0  0  0  0  0  0  0  0  0  0  0  0
   -0.7732   -0.3086   -1.8534 H   0  0  0  0  0  0  0  0  0  0  0  0
   -0.6083   -1.7544   -0.8162 H   0  0  0  0  0  0  0  0  0  0  0  0
   -0.1376    1.3050    1.5461 H   0  0  0  0  0  0  0  0  0  0  0  0
   -0.4205    1.9857   -0.0818 H   0  0  0  0  0  0  0  0  0  0  0  0
    2.0949   -1.5356    0.0491 H   0  0  0  0  0  0  0  0  0  0  0  0
    2.3175   -0.0836    1.1706 H   0  0  0  0  0  0  0  0  0  0  0  0
  2  1  1  0
  3  2  1  0
  4  3  1  0
  4  1  1  0
  5  3  1  0
  6  5  1  0
  6  3  1  0
  7  1  1  0
  8  1  1  0
  9  2  1  0
 10  2  1  0
 11  4  1  0
 12  4  1  0
 13  5  1  0
 14  5  1  0
M  END
