
     RDKit          3D

 16 16  0  0  0  0  0  0  0  0999 V2000
   -0.5395    0.9768   -0.5213 C   0  0  0  0  0  0  0  0  0  0  0  0
    0.8467    0.9893    0.1340 C   0  0  0  0  0  0  0  0  0  0  0  0
    1.4800   -0.4167    0.0267 C   0  0  0  0  0  0  0  0  0  0  0  0
    0.4632   -1.4793    0.0089 N   0  0  0  0  0  0  0  0  0  0  0  0
   -0.6133   -1.0602    0.8372 N   0  0  0  0  0  0  0  0  0  0  0  0
   -1.4551   -0.0499    0.1838 C   0  0  0  0  0  0  0  0  0  0  0  0
   -0.9995    1.9705   -0.4942 H   0  0  0  0  0  0  0  0  0  0  0  0
   -0.4316    0.7155   -1.5823 H   0  0  0  0  0  0  0  0  0  0  0  0
    1.4930    1.7368   -0.3411 H   0  0  0  0  0  0  0  0  0  0  0  0
    0.7449    1.2689    1.1881 H   0  0  0  0  0  0  0  0  0  0  0  0
    2.1582   -0.5935    0.8692 H   0  0  0  0  0  0  0  0  0  0  0  0
    2.0642   -0.5126   -0.8972 H   0  0  0  0  0  0  0  0  0  0  0  0
    0.1349   -1.6145   -0.9491 H   0  0  0  0  0  0  0  0  0  0  0  0
   -1.1381   -1.8763    1.1268 H   0  0  0  0  0  0  0  0  0  0  0  0
   -2.1518   -0.4906   -0.5517 H   0  0  0  0  0  0  0  0  0  0  0  0
   -2.0562    0.4357    0.9623 H   0  0  0  0  0  0  0  0  0  0  0  0
  2  1  1  0
  3  2  1  0
  4  3  1  0
  5  4  1  0
  6  5  1  0
  6  1  1  0
  7  1  1  0
  8  1  1  0
  9  2  1  0
 10  2  1  0
 11  3  1  0
 12  3  1  0
 13  4  1  0
 14  5  1  0
 15  6  1  0
 16  6  1  0
M  END
