
     RDKit          3D

 23 24  0  0  0  0  0  0  0  0999 V2000
   -1.4787   -0.9380    0.9180 C   0  0  0  0  0  0  0  0  0  0  0  0
   -0.1275   -0.2900    1.2625 C   0  0  0  0  0  0  0  0  0  0  0  0
    0.5371    0.3013    0.0139 C   0  0  0  0  0  0  0  0  0  0  0  0
   -0.4365    1.2457   -0.6857 C   0  0  0  0  0  0  0  0  0  0  0  0
   -1.7649    0.5351   -0.9827 C   0  0  0  0  0  0  0  0  0  0  0  0
   -2.3940   -0.0499    0.2032 N   0  0  0  0  0  0  0  0  0  0  0  0
    1.2216   -0.7764   -0.8723 C   0  0  0  0  0  0  0  0  0  0  0  0
    2.5503   -0.3217   -0.2317 C   0  0  0  0  0  0  0  0  0  0  0  0
    1.8744    0.8993    0.2659 N   0  0  0  0  0  0  0  0  0  0  0  0
   -1.3094   -1.8183    0.2822 H   0  0  0  0  0  0  0  0  0  0  0  0
   -1.9760   -1.2967    1.8262 H   0  0  0  0  0  0  0  0  0  0  0  0
    0.5393   -1.0265    1.7327 H   0  0  0  0  0  0  0  0  0  0  0  0
   -0.2876    0.5194    1.9915 H   0  0  0  0  0  0  0  0  0  0  0  0
    0.0243    1.6246   -1.6060 H   0  0  0  0  0  0  0  0  0  0  0  0
   -0.6161    2.1131   -0.0334 H   0  0  0  0  0  0  0  0  0  0  0  0
   -2.4774    1.2224   -1.4521 H   0  0  0  0  0  0  0  0  0  0  0  0
   -1.5921   -0.2800   -1.7003 H   0  0  0  0  0  0  0  0  0  0  0  0
   -2.7041    0.6926    0.8241 H   0  0  0  0  0  0  0  0  0  0  0  0
    0.9225   -1.8148   -0.7048 H   0  0  0  0  0  0  0  0  0  0  0  0
    1.1577   -0.5486   -1.9406 H   0  0  0  0  0  0  0  0  0  0  0  0
    3.3878   -0.1209   -0.9085 H   0  0  0  0  0  0  0  0  0  0  0  0
    2.8909   -1.0038    0.5598 H   0  0  0  0  0  0  0  0  0  0  0  0
    2.0585    1.1317    1.2380 H   0  0  0  0  0  0  0  0  0  0  0  0
  2  1  1  0
  3  2  1  0
  4  3  1  0
  5  4  1  0
  6  5  1  0
  6  1  1  0
  7  3  1  0
  8  7  1  0
  9  8  1  0
  9  3  1  0
 10  1  1  0
 11  1  1  0
 12  2  1  0
 13  2  1  0
 14  4  1  0
 15  4  1  0
 16  5  1  0
 17  5  1  0
 18  6  1  0
 19  7  1  0
 20  7  1  0
 21  8  1  0
 22  8  1  0
 23  9  1  0
M  END
