
     RDKit          3D

 15 16  0  0  0  0  0  0  0  0999 V2000
   -1.7014    0.1678   -0.0403 C   0  0  0  0  0  0  0  0  0  0  0  0
   -0.7522   -1.0385   -0.2987 C   0  0  0  0  0  0  0  0  0  0  0  0
    0.4319   -0.1307    0.0402 C   0  0  0  0  0  0  0  0  0  0  0  0
   -0.4698    1.1085    0.1062 C   0  0  0  0  0  0  0  0  0  0  0  0
    1.8509   -0.2172   -0.3577 C   0  0  0  0  0  0  0  0  0  0  0  0
    1.4348   -0.4955    1.0304 N   0  0  0  0  0  0  0  0  0  0  0  0
   -2.3875    0.4158   -0.8548 H   0  0  0  0  0  0  0  0  0  0  0  0
   -2.2774    0.0699    0.8843 H   0  0  0  0  0  0  0  0  0  0  0  0
   -0.7516   -1.3841   -1.3379 H   0  0  0  0  0  0  0  0  0  0  0  0
   -0.8680   -1.8974    0.3686 H   0  0  0  0  0  0  0  0  0  0  0  0
   -0.3334    1.7934   -0.7377 H   0  0  0  0  0  0  0  0  0  0  0  0
   -0.4142    1.6814    1.0391 H   0  0  0  0  0  0  0  0  0  0  0  0
    2.2124   -1.0849   -0.9062 H   0  0  0  0  0  0  0  0  0  0  0  0
    2.3780    0.7136   -0.5662 H   0  0  0  0  0  0  0  0  0  0  0  0
    1.6473    0.2979    1.6310 H   0  0  0  0  0  0  0  0  0  0  0  0
  2  1  1  0
  3  2  1  0
  4  3  1  0
  4  1  1  0
  5  3  1  0
  6  5  1  0
  6  3  1  0
  7  1  1  0
  8  1  1  0
  9  2  1  0
 10  2  1  0
 11  4  1  0
 12  4  1  0
 13  5  1  0
 14  5  1  0
 15  6  1  0
M  END
