
     RDKit          3D

 20 21  0  0  0  0  0  0  0  0999 V2000
   -1.3662    0.7558    0.0726 C   0  0  0  0  0  0  0  0  0  0  0  0
   -1.2360   -0.5283   -0.7897 C   0  0  0  0  0  0  0  0  0  0  0  0
    0.2110   -1.0295   -0.7008 C   0  0  2  0  0  0  0  0  0  0  0  0
    0.5591   -1.3208    0.7687 C   0  0  0  0  0  0  0  0  0  0  0  0
    0.4780   -0.0593    1.5389 N   0  0  0  0  0  0  0  0  0  0  0  0
    0.0087    1.0520    0.6981 C   0  0  1  0  0  0  0  0  0  0  0  0
    1.0340    1.2436   -0.4242 C   0  0  0  0  0  0  0  0  0  0  0  0
    1.0850    0.0164   -1.2522 N   0  0  0  0  0  0  0  0  0  0  0  0
   -2.1090    0.6255    0.8695 H   0  0  0  0  0  0  0  0  0  0  0  0
   -1.6932    1.6087   -0.5345 H   0  0  0  0  0  0  0  0  0  0  0  0
   -1.9183   -1.3116   -0.4392 H   0  0  0  0  0  0  0  0  0  0  0  0
   -1.4742   -0.3252   -1.8384 H   0  0  0  0  0  0  0  0  0  0  0  0
    0.3389   -1.9351   -1.3039 H   0  0  0  0  0  0  0  0  0  0  0  0
    1.5769   -1.7315    0.8340 H   0  0  0  0  0  0  0  0  0  0  0  0
   -0.1263   -2.0805    1.1717 H   0  0  0  0  0  0  0  0  0  0  0  0
   -0.1349   -0.1671    2.3384 H   0  0  0  0  0  0  0  0  0  0  0  0
   -0.0289    1.9558    1.3163 H   0  0  0  0  0  0  0  0  0  0  0  0
    0.7470    2.1030   -1.0454 H   0  0  0  0  0  0  0  0  0  0  0  0
    2.0121    1.4578    0.0233 H   0  0  0  0  0  0  0  0  0  0  0  0
    2.0362   -0.3296   -1.3032 H   0  0  0  0  0  0  0  0  0  0  0  0
  2  1  1  0
  3  2  1  0
  4  3  1  0
  5  4  1  0
  6  5  1  0
  6  1  1  0
  7  6  1  0
  8  7  1  0
  8  3  1  0
  9  1  1  0
 10  1  1  0
 11  2  1  0
 12  2  1  0
  3 13  1  6
 14  4  1  0
 15  4  1  0
 16  5  1  0
  6 17  1  1
 18  7  1  0
 19  7  1  0
 20  8  1  0
M  END
