
     RDKit          3D

 27 29  0  0  0  0  0  0  0  0999 V2000
    1.0836   -1.0570    0.8259 C   0  0  0  0  0  0  0  0  0  0  0  0
    0.6744    0.2623    1.5334 C   0  0  0  0  0  0  0  0  0  0  0  0
    0.3380    1.3229    0.4710 C   0  0  1  0  0  0  0  0  0  0  0  0
    1.5756    1.5296   -0.4146 C   0  0  0  0  0  0  0  0  0  0  0  0
    1.9169    0.2620   -1.1013 N   0  0  0  0  0  0  0  0  0  0  0  0
    1.0264   -0.8375   -0.6970 C   0  0  2  0  0  0  0  0  0  0  0  0
   -0.3895   -0.4568   -1.1576 C   0  0  1  0  0  0  0  0  0  0  0  0
   -1.4951   -1.4722   -0.7829 C   0  0  0  0  0  0  0  0  0  0  0  0
   -2.1773   -0.9719    0.4173 N   0  0  0  0  0  0  0  0  0  0  0  0
   -2.1267    0.4902    0.2961 C   0  0  0  0  0  0  0  0  0  0  0  0
   -0.8146    0.8596   -0.4388 C   0  0  1  0  0  0  0  0  0  0  0  0
    2.1058   -1.3448    1.1011 H   0  0  0  0  0  0  0  0  0  0  0  0
    0.4421   -1.8955    1.1231 H   0  0  0  0  0  0  0  0  0  0  0  0
    1.4922    0.6341    2.1624 H   0  0  0  0  0  0  0  0  0  0  0  0
   -0.1784    0.1102    2.2046 H   0  0  0  0  0  0  0  0  0  0  0  0
    0.0738    2.2718    0.9549 H   0  0  0  0  0  0  0  0  0  0  0  0
    1.3729    2.3114   -1.1601 H   0  0  0  0  0  0  0  0  0  0  0  0
    2.4167    1.8774    0.2013 H   0  0  0  0  0  0  0  0  0  0  0  0
    2.8797    0.0075   -0.9146 H   0  0  0  0  0  0  0  0  0  0  0  0
    1.3525   -1.7419   -1.2246 H   0  0  0  0  0  0  0  0  0  0  0  0
   -0.3454   -0.3130   -2.2421 H   0  0  0  0  0  0  0  0  0  0  0  0
   -1.1153   -2.4864   -0.6151 H   0  0  0  0  0  0  0  0  0  0  0  0
   -2.2289   -1.5314   -1.5968 H   0  0  0  0  0  0  0  0  0  0  0  0
   -1.6676   -1.2622    1.2441 H   0  0  0  0  0  0  0  0  0  0  0  0
   -2.9881    0.8164   -0.3010 H   0  0  0  0  0  0  0  0  0  0  0  0
   -2.2177    0.9612    1.2813 H   0  0  0  0  0  0  0  0  0  0  0  0
   -1.0059    1.6540   -1.1702 H   0  0  0  0  0  0  0  0  0  0  0  0
  2  1  1  0
  3  2  1  0
  4  3  1  0
  5  4  1  0
  6  5  1  0
  6  1  1  0
  7  6  1  0
  8  7  1  0
  9  8  1  0
 10  9  1  0
 11 10  1  0
 11  7  1  0
 11  3  1  0
 12  1  1  0
 13  1  1  0
 14  2  1  0
 15  2  1  0
  3 16  1  1
 17  4  1  0
 18  4  1  0
 19  5  1  0
  6 20  1  6
  7 21  1  6
 22  8  1  0
 23  8  1  0
 24  9  1  0
 25 10  1  0
 26 10  1  0
 11 27  1  6
M  END
