
     RDKit          3D

 16 16  0  0  0  0  0  0  0  0999 V2000
   -0.1817    1.1851   -0.3626 C   0  0  0  0  0  0  0  0  0  0  0  0
    1.2042    0.6683    0.0433 C   0  0  0  0  0  0  0  0  0  0  0  0
    1.2718   -0.8482   -0.1370 C   0  0  0  0  0  0  0  0  0  0  0  0
    0.2490   -1.5100    0.5962 O   0  0  0  0  0  0  0  0  0  0  0  0
   -1.0476   -1.1080    0.1741 C   0  0  0  0  0  0  0  0  0  0  0  0
   -1.2666    0.3914    0.3760 C   0  0  0  0  0  0  0  0  0  0  0  0
   -0.3135    1.0573   -1.4472 H   0  0  0  0  0  0  0  0  0  0  0  0
   -0.2738    2.2575   -0.1540 H   0  0  0  0  0  0  0  0  0  0  0  0
    1.3959    0.9076    1.0974 H   0  0  0  0  0  0  0  0  0  0  0  0
    1.9923    1.1450   -0.5534 H   0  0  0  0  0  0  0  0  0  0  0  0
    1.1787   -1.1042   -1.2075 H   0  0  0  0  0  0  0  0  0  0  0  0
    2.2188   -1.2545    0.2307 H   0  0  0  0  0  0  0  0  0  0  0  0
   -1.1828   -1.3678   -0.8909 H   0  0  0  0  0  0  0  0  0  0  0  0
   -1.7543   -1.7001    0.7632 H   0  0  0  0  0  0  0  0  0  0  0  0
   -1.2226    0.6130    1.4504 H   0  0  0  0  0  0  0  0  0  0  0  0
   -2.2675    0.6679    0.0211 H   0  0  0  0  0  0  0  0  0  0  0  0
  2  1  1  0
  3  2  1  0
  4  3  1  0
  5  4  1  0
  6  5  1  0
  6  1  1  0
  7  1  1  0
  8  1  1  0
  9  2  1  0
 10  2  1  0
 11  3  1  0
 12  3  1  0
 13  5  1  0
 14  5  1  0
 15  6  1  0
 16  6  1  0
M  END
