
     RDKit          3D

 17 17  0  0  0  0  0  0  0  0999 V2000
   -0.8872   -0.9673    0.3413 C   0  0  0  0  0  0  0  0  0  0  0  0
   -1.3124    0.4959    0.1618 C   0  0  0  0  0  0  0  0  0  0  0  0
   -0.1334    1.4358    0.4541 C   0  0  0  0  0  0  0  0  0  0  0  0
    1.0698    1.1341   -0.3240 N   0  0  0  0  0  0  0  0  0  0  0  0
    1.4771   -0.2655   -0.1840 C   0  0  0  0  0  0  0  0  0  0  0  0
    0.3596   -1.2706   -0.4998 C   0  0  0  0  0  0  0  0  0  0  0  0
   -0.6574   -1.1475    1.4020 H   0  0  0  0  0  0  0  0  0  0  0  0
   -1.7079   -1.6447    0.0751 H   0  0  0  0  0  0  0  0  0  0  0  0
   -1.6513    0.6540   -0.8729 H   0  0  0  0  0  0  0  0  0  0  0  0
   -2.1589    0.7372    0.8179 H   0  0  0  0  0  0  0  0  0  0  0  0
   -0.4115    2.4801    0.2704 H   0  0  0  0  0  0  0  0  0  0  0  0
    0.1357    1.3598    1.5178 H   0  0  0  0  0  0  0  0  0  0  0  0
    0.9009    1.3421   -1.3044 H   0  0  0  0  0  0  0  0  0  0  0  0
    2.3501   -0.4375   -0.8242 H   0  0  0  0  0  0  0  0  0  0  0  0
    1.8099   -0.4082    0.8545 H   0  0  0  0  0  0  0  0  0  0  0  0
    0.7111   -2.2945   -0.3174 H   0  0  0  0  0  0  0  0  0  0  0  0
    0.1053   -1.2030   -1.5681 H   0  0  0  0  0  0  0  0  0  0  0  0
  2  1  1  0
  3  2  1  0
  4  3  1  0
  5  4  1  0
  6  5  1  0
  6  1  1  0
  7  1  1  0
  8  1  1  0
  9  2  1  0
 10  2  1  0
 11  3  1  0
 12  3  1  0
 13  4  1  0
 14  5  1  0
 15  5  1  0
 16  6  1  0
 17  6  1  0
M  END
