
     RDKit          3D

  9  9  0  0  0  0  0  0  0  0999 V2000
    0.7180    0.7174    0.1729 C   0  0  0  0  0  0  0  0  0  0  0  0
   -0.7099    0.6580    0.3493 C   0  0  0  0  0  0  0  0  0  0  0  0
   -1.0893   -0.5769   -0.0745 C   0  0  0  0  0  0  0  0  0  0  0  0
   -0.0078   -1.2885   -0.4995 O   0  0  0  0  0  0  0  0  0  0  0  0
    1.0829   -0.4869   -0.3421 C   0  0  0  0  0  0  0  0  0  0  0  0
    1.3756    1.5457    0.4005 H   0  0  0  0  0  0  0  0  0  0  0  0
   -1.3578    1.4320    0.7382 H   0  0  0  0  0  0  0  0  0  0  0  0
   -2.0407   -1.0848   -0.1377 H   0  0  0  0  0  0  0  0  0  0  0  0
    2.0287   -0.9159   -0.6396 H   0  0  0  0  0  0  0  0  0  0  0  0
  2  1  1  0
  3  2  2  0
  4  3  1  0
  5  4  1  0
  5  1  2  0
  6  1  1  0
  7  2  1  0
  8  3  1  0
  9  5  1  0
M  END
