
     RDKit          3D

 11 11  0  0  0  0  0  0  0  0999 V2000
    0.0852    1.1926   -0.0028 C   0  0  0  0  0  0  0  0  0  0  0  0
   -1.1605    0.5674   -0.0007 C   0  0  0  0  0  0  0  0  0  0  0  0
   -1.2035   -0.8275    0.0025 C   0  0  0  0  0  0  0  0  0  0  0  0
   -0.1146   -1.6045    0.0037 N   0  0  0  0  0  0  0  0  0  0  0  0
    1.0738   -0.9902    0.0018 C   0  0  0  0  0  0  0  0  0  0  0  0
    1.2294    0.3967   -0.0015 C   0  0  0  0  0  0  0  0  0  0  0  0
    0.1626    2.2772   -0.0053 H   0  0  0  0  0  0  0  0  0  0  0  0
   -2.0821    1.1427   -0.0016 H   0  0  0  0  0  0  0  0  0  0  0  0
   -2.1598   -1.3486    0.0041 H   0  0  0  0  0  0  0  0  0  0  0  0
    1.9465   -1.6416    0.0029 H   0  0  0  0  0  0  0  0  0  0  0  0
    2.2231    0.8358   -0.0030 H   0  0  0  0  0  0  0  0  0  0  0  0
  2  1  2  0
  3  2  1  0
  4  3  2  0
  5  4  1  0
  6  5  2  0
  6  1  1  0
  7  1  1  0
  8  2  1  0
  9  3  1  0
 10  5  1  0
 11  6  1  0
M  END
