
     RDKit          3D

 17 18  0  0  0  0  0  0  0  0999 V2000
   -1.9751    0.3552    0.4621 C   0  0  0  0  0  0  0  0  0  0  0  0
   -1.0950    0.5216   -0.8067 C   0  0  0  0  0  0  0  0  0  0  0  0
    0.1501    0.0914   -0.0013 C   0  0  0  0  0  0  0  0  0  0  0  0
   -0.7142   -0.0598    1.2686 C   0  0  0  0  0  0  0  0  0  0  0  0
    1.1198   -1.0000   -0.4866 C   0  0  0  0  0  0  0  0  0  0  0  0
    2.1945    0.0937   -0.3764 C   0  0  0  0  0  0  0  0  0  0  0  0
    1.2214    1.0594    0.0753 O   0  0  0  0  0  0  0  0  0  0  0  0
   -2.7413   -0.4216    0.3850 H   0  0  0  0  0  0  0  0  0  0  0  0
   -2.4512    1.2770    0.8077 H   0  0  0  0  0  0  0  0  0  0  0  0
   -1.3447   -0.1435   -1.6407 H   0  0  0  0  0  0  0  0  0  0  0  0
   -1.0091    1.5463   -1.1806 H   0  0  0  0  0  0  0  0  0  0  0  0
   -0.7354   -1.0744    1.6818 H   0  0  0  0  0  0  0  0  0  0  0  0
   -0.4152    0.6400    2.0547 H   0  0  0  0  0  0  0  0  0  0  0  0
    0.9254   -1.3685   -1.4978 H   0  0  0  0  0  0  0  0  0  0  0  0
    1.2371   -1.8454    0.1972 H   0  0  0  0  0  0  0  0  0  0  0  0
    2.9730   -0.0751    0.3770 H   0  0  0  0  0  0  0  0  0  0  0  0
    2.6597    0.4034   -1.3197 H   0  0  0  0  0  0  0  0  0  0  0  0
  2  1  1  0
  3  2  1  0
  4  3  1  0
  4  1  1  0
  5  3  1  0
  6  5  1  0
  7  6  1  0
  7  3  1  0
  8  1  1  0
  9  1  1  0
 10  2  1  0
 11  2  1  0
 12  4  1  0
 13  4  1  0
 14  5  1  0
 15  5  1  0
 16  6  1  0
 17  6  1  0
M  END
