
     RDKit          3D

 26 27  0  0  0  0  0  0  0  0999 V2000
   -2.3405   -0.9339    0.0748 C   0  0  0  0  0  0  0  0  0  0  0  0
   -2.4010    0.5782    0.4389 C   0  0  0  0  0  0  0  0  0  0  0  0
   -1.0906    1.1946   -0.1060 C   0  0  0  0  0  0  0  0  0  0  0  0
   -0.1337    0.0015   -0.3144 C   0  0  0  0  0  0  0  0  0  0  0  0
   -1.1003   -1.0801   -0.8254 C   0  0  0  0  0  0  0  0  0  0  0  0
    1.0212    0.3302   -1.2920 C   0  0  0  0  0  0  0  0  0  0  0  0
    2.2423   -0.4219   -1.0234 N   0  0  0  0  0  0  0  0  0  0  0  0
    2.7814   -0.0692    0.2965 C   0  0  0  0  0  0  0  0  0  0  0  0
    1.6666    0.2896    1.3052 C   0  0  0  0  0  0  0  0  0  0  0  0
    0.4749   -0.4734    0.9457 N   0  0  0  0  0  0  0  0  0  0  0  0
   -2.2232   -1.5443    0.9780 H   0  0  0  0  0  0  0  0  0  0  0  0
   -3.2537   -1.2792   -0.4204 H   0  0  0  0  0  0  0  0  0  0  0  0
   -2.4826    0.7154    1.5233 H   0  0  0  0  0  0  0  0  0  0  0  0
   -3.2778    1.0651   -0.0001 H   0  0  0  0  0  0  0  0  0  0  0  0
   -1.2704    1.6792   -1.0750 H   0  0  0  0  0  0  0  0  0  0  0  0
   -0.6605    1.9532    0.5586 H   0  0  0  0  0  0  0  0  0  0  0  0
   -1.3655   -0.8570   -1.8676 H   0  0  0  0  0  0  0  0  0  0  0  0
   -0.6533   -2.0788   -0.7884 H   0  0  0  0  0  0  0  0  0  0  0  0
    1.2705    1.3983   -1.2310 H   0  0  0  0  0  0  0  0  0  0  0  0
    0.6944    0.1426   -2.3212 H   0  0  0  0  0  0  0  0  0  0  0  0
    2.0157   -1.4110   -1.0256 H   0  0  0  0  0  0  0  0  0  0  0  0
    3.3623   -0.9224    0.6620 H   0  0  0  0  0  0  0  0  0  0  0  0
    3.4721    0.7782    0.1888 H   0  0  0  0  0  0  0  0  0  0  0  0
    1.4874    1.3798    1.2994 H   0  0  0  0  0  0  0  0  0  0  0  0
    1.9702    0.0209    2.3227 H   0  0  0  0  0  0  0  0  0  0  0  0
   -0.2059   -0.4560    1.6968 H   0  0  0  0  0  0  0  0  0  0  0  0
  2  1  1  0
  3  2  1  0
  4  3  1  0
  5  4  1  0
  5  1  1  0
  6  4  1  0
  7  6  1  0
  8  7  1  0
  9  8  1  0
 10  9  1  0
 10  4  1  0
 11  1  1  0
 12  1  1  0
 13  2  1  0
 14  2  1  0
 15  3  1  0
 16  3  1  0
 17  5  1  0
 18  5  1  0
 19  6  1  0
 20  6  1  0
 21  7  1  0
 22  8  1  0
 23  8  1  0
 24  9  1  0
 25  9  1  0
 26 10  1  0
M  END
