
     RDKit          3D

 10 10  0  0  0  0  0  0  0  0999 V2000
    0.0402    1.1953    0.0875 C   0  0  0  0  0  0  0  0  0  0  0  0
   -1.1087    0.3682    0.2842 C   0  0  0  0  0  0  0  0  0  0  0  0
   -0.7080   -0.9382    0.1116 C   0  0  0  0  0  0  0  0  0  0  0  0
    0.6355   -0.9300   -0.1810 N   0  0  0  0  0  0  0  0  0  0  0  0
    1.1004    0.3638   -0.1981 C   0  0  0  0  0  0  0  0  0  0  0  0
    0.0812    2.2751    0.1490 H   0  0  0  0  0  0  0  0  0  0  0  0
   -2.1118    0.6963    0.5245 H   0  0  0  0  0  0  0  0  0  0  0  0
   -1.2616   -1.8652    0.1722 H   0  0  0  0  0  0  0  0  0  0  0  0
    1.1946   -1.7481   -0.3564 H   0  0  0  0  0  0  0  0  0  0  0  0
    2.1380    0.5829   -0.4105 H   0  0  0  0  0  0  0  0  0  0  0  0
  2  1  1  0
  3  2  2  0
  4  3  1  0
  5  4  1  0
  5  1  2  0
  6  1  1  0
  7  2  1  0
  8  3  1  0
  9  4  1  0
 10  5  1  0
M  END
