
     RDKit          3D

 17 18  0  0  0  0  0  0  0  0999 V2000
    1.9275    0.1699   -0.2345 C   0  0  0  0  0  0  0  0  0  0  0  0
    0.8324   -0.8260   -0.7026 C   0  0  0  0  0  0  0  0  0  0  0  0
   -0.2158   -0.0593    0.1421 C   0  0  0  0  0  0  0  0  0  0  0  0
    0.9106    0.7958    0.7573 C   0  0  0  0  0  0  0  0  0  0  0  0
   -1.4430    0.5649   -0.5419 C   0  0  0  0  0  0  0  0  0  0  0  0
   -2.2905   -0.4343    0.1600 N   0  0  0  0  0  0  0  0  0  0  0  0
   -1.1532   -0.7937    1.0248 N   0  0  0  0  0  0  0  0  0  0  0  0
    2.2599    0.8564   -1.0188 H   0  0  0  0  0  0  0  0  0  0  0  0
    2.8106   -0.2859    0.2222 H   0  0  0  0  0  0  0  0  0  0  0  0
    0.9928   -1.8504   -0.3464 H   0  0  0  0  0  0  0  0  0  0  0  0
    0.6303   -0.8607   -1.7785 H   0  0  0  0  0  0  0  0  0  0  0  0
    1.0885    0.5344    1.8051 H   0  0  0  0  0  0  0  0  0  0  0  0
    0.7648    1.8793    0.6844 H   0  0  0  0  0  0  0  0  0  0  0  0
   -1.6232    1.6037   -0.2372 H   0  0  0  0  0  0  0  0  0  0  0  0
   -1.4879    0.4891   -1.6335 H   0  0  0  0  0  0  0  0  0  0  0  0
   -2.9877    0.0169    0.7470 H   0  0  0  0  0  0  0  0  0  0  0  0
   -1.0158   -1.8003    0.9509 H   0  0  0  0  0  0  0  0  0  0  0  0
  2  1  1  0
  3  2  1  0
  4  3  1  0
  4  1  1  0
  5  3  1  0
  6  5  1  0
  7  6  1  0
  7  3  1  0
  8  1  1  0
  9  1  1  0
 10  2  1  0
 11  2  1  0
 12  4  1  0
 13  4  1  0
 14  5  1  0
 15  5  1  0
 16  6  1  0
 17  7  1  0
M  END
