
     RDKit          3D

 26 27  0  0  0  0  0  0  0  0999 V2000
    2.2558   -0.7213    0.6978 C   0  0  0  0  0  0  0  0  0  0  0  0
    0.9266   -1.4890    0.6328 C   0  0  0  0  0  0  0  0  0  0  0  0
   -0.2791   -0.6340    1.0548 C   0  0  0  0  0  0  0  0  0  0  0  0
   -0.9201    0.1945   -0.0648 C   0  0  0  0  0  0  0  0  0  0  0  0
    0.0975    0.8788   -0.9827 C   0  0  0  0  0  0  0  0  0  0  0  0
    1.2980    1.3596   -0.2999 N   0  0  0  0  0  0  0  0  0  0  0  0
    2.4060    0.4021   -0.3294 C   0  0  0  0  0  0  0  0  0  0  0  0
   -2.0850    1.0584    0.4902 C   0  0  0  0  0  0  0  0  0  0  0  0
   -3.0386    0.0011    0.0815 N   0  0  0  0  0  0  0  0  0  0  0  0
   -2.0267   -0.5793   -0.8283 C   0  0  0  0  0  0  0  0  0  0  0  0
    2.3592   -0.2936    1.7039 H   0  0  0  0  0  0  0  0  0  0  0  0
    3.0915   -1.4204    0.5578 H   0  0  0  0  0  0  0  0  0  0  0  0
    0.7722   -1.9009   -0.3757 H   0  0  0  0  0  0  0  0  0  0  0  0
    1.0018   -2.3531    1.3043 H   0  0  0  0  0  0  0  0  0  0  0  0
    0.0426    0.0522    1.8482 H   0  0  0  0  0  0  0  0  0  0  0  0
   -1.0655   -1.2663    1.4847 H   0  0  0  0  0  0  0  0  0  0  0  0
   -0.3948    1.7258   -1.4761 H   0  0  0  0  0  0  0  0  0  0  0  0
    0.3696    0.1686   -1.7860 H   0  0  0  0  0  0  0  0  0  0  0  0
    1.5999    2.2316   -0.7156 H   0  0  0  0  0  0  0  0  0  0  0  0
    3.3329    0.9489   -0.1195 H   0  0  0  0  0  0  0  0  0  0  0  0
    2.5123   -0.0452   -1.3368 H   0  0  0  0  0  0  0  0  0  0  0  0
   -2.1995    2.0055   -0.0588 H   0  0  0  0  0  0  0  0  0  0  0  0
   -2.0776    1.2660    1.5669 H   0  0  0  0  0  0  0  0  0  0  0  0
   -3.8908    0.3252   -0.3626 H   0  0  0  0  0  0  0  0  0  0  0  0
   -1.9715   -1.6754   -0.8136 H   0  0  0  0  0  0  0  0  0  0  0  0
   -2.1165   -0.2398   -1.8728 H   0  0  0  0  0  0  0  0  0  0  0  0
  2  1  1  0
  3  2  1  0
  4  3  1  0
  5  4  1  0
  6  5  1  0
  7  6  1  0
  7  1  1  0
  8  4  1  0
  9  8  1  0
 10  9  1  0
 10  4  1  0
 11  1  1  0
 12  1  1  0
 13  2  1  0
 14  2  1  0
 15  3  1  0
 16  3  1  0
 17  5  1  0
 18  5  1  0
 19  6  1  0
 20  7  1  0
 21  7  1  0
 22  8  1  0
 23  8  1  0
 24  9  1  0
 25 10  1  0
 26 10  1  0
M  END
