
     RDKit          3D

 16 17  0  0  0  0  0  0  0  0999 V2000
   -1.7939   -0.0778    0.2159 C   0  0  0  0  0  0  0  0  0  0  0  0
   -0.5907    0.0276    1.1947 C   0  0  0  0  0  0  0  0  0  0  0  0
    0.3351   -0.0464   -0.0241 C   0  0  0  0  0  0  0  0  0  0  0  0
   -0.8191   -0.5364   -0.9047 C   0  0  0  0  0  0  0  0  0  0  0  0
    1.7856   -0.4031   -0.0854 C   0  0  0  0  0  0  0  0  0  0  0  0
    1.3301    1.0043   -0.4148 C   0  0  0  0  0  0  0  0  0  0  0  0
   -2.5949   -0.7709    0.4891 H   0  0  0  0  0  0  0  0  0  0  0  0
   -2.2316    0.9018    0.0002 H   0  0  0  0  0  0  0  0  0  0  0  0
   -0.4990   -0.8547    1.8391 H   0  0  0  0  0  0  0  0  0  0  0  0
   -0.5268    0.9300    1.8123 H   0  0  0  0  0  0  0  0  0  0  0  0
   -0.9295   -0.0641   -1.8869 H   0  0  0  0  0  0  0  0  0  0  0  0
   -0.8113   -1.6255   -1.0301 H   0  0  0  0  0  0  0  0  0  0  0  0
    2.1220   -1.0340   -0.9055 H   0  0  0  0  0  0  0  0  0  0  0  0
    2.3124   -0.5602    0.8534 H   0  0  0  0  0  0  0  0  0  0  0  0
    1.3599    1.3179   -1.4563 H   0  0  0  0  0  0  0  0  0  0  0  0
    1.5517    1.7913    0.3031 H   0  0  0  0  0  0  0  0  0  0  0  0
  2  1  1  0
  3  2  1  0
  4  3  1  0
  4  1  1  0
  5  3  1  0
  6  5  1  0
  6  3  1  0
  7  1  1  0
  8  1  1  0
  9  2  1  0
 10  2  1  0
 11  4  1  0
 12  4  1  0
 13  5  1  0
 14  5  1  0
 15  6  1  0
 16  6  1  0
M  END
