
     RDKit          3D

 17 18  0  0  0  0  0  0  0  0999 V2000
    1.7517   -0.6126   -0.3746 C   0  0  0  0  0  0  0  0  0  0  0  0
    0.6841    0.2096   -1.1455 C   0  0  0  0  0  0  0  0  0  0  0  0
   -0.2796    0.0979    0.0597 C   0  0  0  0  0  0  0  0  0  0  0  0
    0.7811   -0.7217    0.8323 C   0  0  0  0  0  0  0  0  0  0  0  0
   -0.9459    1.3383    0.6768 C   0  0  0  0  0  0  0  0  0  0  0  0
   -2.2690    0.7930    0.4855 O   0  0  0  0  0  0  0  0  0  0  0  0
   -1.7230   -0.4051   -0.1063 C   0  0  0  0  0  0  0  0  0  0  0  0
    2.0106   -1.5694   -0.8376 H   0  0  0  0  0  0  0  0  0  0  0  0
    2.6786   -0.0708   -0.1652 H   0  0  0  0  0  0  0  0  0  0  0  0
    0.9795    1.2368   -1.3863 H   0  0  0  0  0  0  0  0  0  0  0  0
    0.3101   -0.2635   -2.0602 H   0  0  0  0  0  0  0  0  0  0  0  0
    0.4638   -1.7413    1.0779 H   0  0  0  0  0  0  0  0  0  0  0  0
    1.1328   -0.2406    1.7516 H   0  0  0  0  0  0  0  0  0  0  0  0
   -0.8081    2.2728    0.1165 H   0  0  0  0  0  0  0  0  0  0  0  0
   -0.7285    1.5081    1.7398 H   0  0  0  0  0  0  0  0  0  0  0  0
   -2.0591   -0.5334   -1.1440 H   0  0  0  0  0  0  0  0  0  0  0  0
   -1.9795   -1.2980    0.4794 H   0  0  0  0  0  0  0  0  0  0  0  0
  2  1  1  0
  3  2  1  0
  4  3  1  0
  4  1  1  0
  5  3  1  0
  6  5  1  0
  7  6  1  0
  7  3  1  0
  8  1  1  0
  9  1  1  0
 10  2  1  0
 11  2  1  0
 12  4  1  0
 13  4  1  0
 14  5  1  0
 15  5  1  0
 16  7  1  0
 17  7  1  0
M  END
