
     RDKit          3D

 26 27  0  0  0  0  0  0  0  0999 V2000
    2.5721   -0.0982    0.0097 C   0  0  0  0  0  0  0  0  0  0  0  0
    1.6507   -0.5891   -1.1115 C   0  0  0  0  0  0  0  0  0  0  0  0
    0.3137   -1.0713   -0.5350 C   0  0  0  0  0  0  0  0  0  0  0  0
   -0.3493   -0.0192    0.3717 C   0  0  2  0  0  0  0  0  0  0  0  0
   -1.6195   -0.5830    1.0264 C   0  0  0  0  0  0  0  0  0  0  0  0
   -2.6947   -0.4693   -0.0645 C   0  0  0  0  0  0  0  0  0  0  0  0
   -2.2842    0.6794   -0.9018 N   0  0  0  0  0  0  0  0  0  0  0  0
   -0.9612    1.1385   -0.4602 C   0  0  0  0  0  0  0  0  0  0  0  0
    0.6176    0.3816    1.3940 N   0  0  0  0  0  0  0  0  0  0  0  0
    1.8533    0.9531    0.8551 C   0  0  0  0  0  0  0  0  0  0  0  0
    2.8466   -0.9404    0.6581 H   0  0  0  0  0  0  0  0  0  0  0  0
    3.4969    0.3217   -0.4045 H   0  0  0  0  0  0  0  0  0  0  0  0
    2.1271   -1.3996   -1.6764 H   0  0  0  0  0  0  0  0  0  0  0  0
    1.4808    0.2298   -1.8246 H   0  0  0  0  0  0  0  0  0  0  0  0
    0.4866   -1.9724    0.0677 H   0  0  0  0  0  0  0  0  0  0  0  0
   -0.3744   -1.3457   -1.3445 H   0  0  0  0  0  0  0  0  0  0  0  0
   -1.8851    0.0455    1.8870 H   0  0  0  0  0  0  0  0  0  0  0  0
   -1.4803   -1.6049    1.3921 H   0  0  0  0  0  0  0  0  0  0  0  0
   -2.7435   -1.3933   -0.6571 H   0  0  0  0  0  0  0  0  0  0  0  0
   -3.6905   -0.3032    0.3631 H   0  0  0  0  0  0  0  0  0  0  0  0
   -2.2796    0.4342   -1.8825 H   0  0  0  0  0  0  0  0  0  0  0  0
   -1.0631    2.0233    0.1876 H   0  0  0  0  0  0  0  0  0  0  0  0
   -0.3531    1.4361   -1.3205 H   0  0  0  0  0  0  0  0  0  0  0  0
    0.1787    1.0351    2.0357 H   0  0  0  0  0  0  0  0  0  0  0  0
    2.4827    1.2597    1.6980 H   0  0  0  0  0  0  0  0  0  0  0  0
    1.6712    1.8520    0.2366 H   0  0  0  0  0  0  0  0  0  0  0  0
  2  1  1  0
  3  2  1  0
  4  3  1  0
  5  4  1  0
  6  5  1  0
  7  6  1  0
  8  7  1  0
  8  4  1  0
  4  9  1  1
 10  9  1  0
 10  1  1  0
 11  1  1  0
 12  1  1  0
 13  2  1  0
 14  2  1  0
 15  3  1  0
 16  3  1  0
 17  5  1  0
 18  5  1  0
 19  6  1  0
 20  6  1  0
 21  7  1  0
 22  8  1  0
 23  8  1  0
 24  9  1  0
 25 10  1  0
 26 10  1  0
M  END
