
     RDKit          3D

 20 21  0  0  0  0  0  0  0  0999 V2000
    0.8274   -0.9537    0.9246 C   0  0  0  0  0  0  0  0  0  0  0  0
    1.3646    0.4672    0.6056 C   0  0  0  0  0  0  0  0  0  0  0  0
    0.6648    0.8309   -0.7297 C   0  0  2  0  0  0  0  0  0  0  0  0
   -0.7035    1.4877   -0.4810 C   0  0  0  0  0  0  0  0  0  0  0  0
   -1.5709    0.6817    0.3835 N   0  0  0  0  0  0  0  0  0  0  0  0
   -1.5467   -0.7385    0.0206 C   0  0  0  0  0  0  0  0  0  0  0  0
   -0.1263   -1.2576   -0.2597 C   0  0  1  0  0  0  0  0  0  0  0  0
    0.3942   -0.4617   -1.3880 N   0  0  0  0  0  0  0  0  0  0  0  0
    1.6425   -1.6852    0.9545 H   0  0  0  0  0  0  0  0  0  0  0  0
    0.3132   -1.0027    1.8919 H   0  0  0  0  0  0  0  0  0  0  0  0
    2.4523    0.4569    0.4749 H   0  0  0  0  0  0  0  0  0  0  0  0
    1.1409    1.1903    1.3991 H   0  0  0  0  0  0  0  0  0  0  0  0
    1.2749    1.4695   -1.3778 H   0  0  0  0  0  0  0  0  0  0  0  0
   -0.5806    2.4765   -0.0240 H   0  0  0  0  0  0  0  0  0  0  0  0
   -1.2016    1.6195   -1.4494 H   0  0  0  0  0  0  0  0  0  0  0  0
   -1.2900    0.7935    1.3520 H   0  0  0  0  0  0  0  0  0  0  0  0
   -2.0150   -1.3109    0.8298 H   0  0  0  0  0  0  0  0  0  0  0  0
   -2.1473   -0.8770   -0.8867 H   0  0  0  0  0  0  0  0  0  0  0  0
   -0.1612   -2.3199   -0.5253 H   0  0  0  0  0  0  0  0  0  0  0  0
    1.2683   -0.8664   -1.7150 H   0  0  0  0  0  0  0  0  0  0  0  0
  2  1  1  0
  3  2  1  0
  4  3  1  0
  5  4  1  0
  6  5  1  0
  7  6  1  0
  7  1  1  0
  8  7  1  0
  8  3  1  0
  9  1  1  0
 10  1  1  0
 11  2  1  0
 12  2  1  0
  3 13  1  6
 14  4  1  0
 15  4  1  0
 16  5  1  0
 17  6  1  0
 18  6  1  0
  7 19  1  6
 20  8  1  0
M  END
