
     RDKit          3D

 18 19  0  0  0  0  0  0  0  0999 V2000
   -2.0899   -0.0135   -0.1459 C   0  0  0  0  0  0  0  0  0  0  0  0
   -0.8594    0.3523   -1.0191 C   0  0  0  0  0  0  0  0  0  0  0  0
    0.0839   -0.1463    0.1134 C   0  0  0  0  0  0  0  0  0  0  0  0
   -1.1415   -0.6305    0.9170 C   0  0  0  0  0  0  0  0  0  0  0  0
    1.1297    0.8354    0.6849 C   0  0  0  0  0  0  0  0  0  0  0  0
    2.1761    0.0116   -0.0957 C   0  0  0  0  0  0  0  0  0  0  0  0
    1.1811   -1.0804   -0.2020 N   0  0  0  0  0  0  0  0  0  0  0  0
   -2.6548    0.8537    0.2089 H   0  0  0  0  0  0  0  0  0  0  0  0
   -2.7914   -0.7153   -0.6066 H   0  0  0  0  0  0  0  0  0  0  0  0
   -0.7570    1.4118   -1.2793 H   0  0  0  0  0  0  0  0  0  0  0  0
   -0.7766   -0.2392   -1.9388 H   0  0  0  0  0  0  0  0  0  0  0  0
   -1.2197   -0.2141    1.9274 H   0  0  0  0  0  0  0  0  0  0  0  0
   -1.1838   -1.7224    0.9837 H   0  0  0  0  0  0  0  0  0  0  0  0
    1.2397    0.7347    1.7690 H   0  0  0  0  0  0  0  0  0  0  0  0
    1.0139    1.8900    0.4198 H   0  0  0  0  0  0  0  0  0  0  0  0
    2.4362    0.4756   -1.0579 H   0  0  0  0  0  0  0  0  0  0  0  0
    3.0968   -0.2668    0.4286 H   0  0  0  0  0  0  0  0  0  0  0  0
    1.1167   -1.5365   -1.1075 H   0  0  0  0  0  0  0  0  0  0  0  0
  2  1  1  0
  3  2  1  0
  4  3  1  0
  4  1  1  0
  5  3  1  0
  6  5  1  0
  7  6  1  0
  7  3  1  0
  8  1  1  0
  9  1  1  0
 10  2  1  0
 11  2  1  0
 12  4  1  0
 13  4  1  0
 14  5  1  0
 15  5  1  0
 16  6  1  0
 17  6  1  0
 18  7  1  0
M  END
