
     RDKit          3D

 13 13  0  0  0  0  0  0  0  0999 V2000
    0.0306    1.0625    0.1858 C   0  0  0  0  0  0  0  0  0  0  0  0
    1.0730   -0.0549    0.0568 C   0  0  0  0  0  0  0  0  0  0  0  0
    0.2716   -1.1413   -0.6671 C   0  0  0  0  0  0  0  0  0  0  0  0
   -1.0920   -0.9729   -0.2624 O   0  0  0  0  0  0  0  0  0  0  0  0
   -1.2437    0.2580    0.4518 C   0  0  0  0  0  0  0  0  0  0  0  0
   -0.0558    1.6139   -0.7582 H   0  0  0  0  0  0  0  0  0  0  0  0
    0.2530    1.7773    0.9841 H   0  0  0  0  0  0  0  0  0  0  0  0
    1.3810   -0.4029    1.0501 H   0  0  0  0  0  0  0  0  0  0  0  0
    1.9690    0.2448   -0.4954 H   0  0  0  0  0  0  0  0  0  0  0  0
    0.3365   -1.0222   -1.7583 H   0  0  0  0  0  0  0  0  0  0  0  0
    0.5891   -2.1576   -0.4085 H   0  0  0  0  0  0  0  0  0  0  0  0
   -1.3583    0.0427    1.5246 H   0  0  0  0  0  0  0  0  0  0  0  0
   -2.1540    0.7524    0.0965 H   0  0  0  0  0  0  0  0  0  0  0  0
  2  1  1  0
  3  2  1  0
  4  3  1  0
  5  4  1  0
  5  1  1  0
  6  1  1  0
  7  1  1  0
  8  2  1  0
  9  2  1  0
 10  3  1  0
 11  3  1  0
 12  5  1  0
 13  5  1  0
M  END
