
     RDKit          3D

 14 15  0  0  0  0  0  0  0  0999 V2000
    1.2342   -0.5031   -0.6941 C   0  0  0  0  0  0  0  0  0  0  0  0
    1.3452    0.5537    0.3856 C   0  0  0  0  0  0  0  0  0  0  0  0
    0.0116    0.0019    0.0001 C   0  0  0  0  0  0  0  0  0  0  0  0
   -0.9901   -0.7677    0.8517 C   0  0  0  0  0  0  0  0  0  0  0  0
   -2.0880   -0.0539    0.2362 O   0  0  0  0  0  0  0  0  0  0  0  0
   -1.1918    0.7244   -0.5915 C   0  0  0  0  0  0  0  0  0  0  0  0
    1.5742   -1.5095   -0.4600 H   0  0  0  0  0  0  0  0  0  0  0  0
    1.3960   -0.1981   -1.7257 H   0  0  0  0  0  0  0  0  0  0  0  0
    1.5825    1.5710    0.0823 H   0  0  0  0  0  0  0  0  0  0  0  0
    1.7593    0.2585    1.3472 H   0  0  0  0  0  0  0  0  0  0  0  0
   -0.9413   -0.5792    1.9320 H   0  0  0  0  0  0  0  0  0  0  0  0
   -1.0524   -1.8469    0.6617 H   0  0  0  0  0  0  0  0  0  0  0  0
   -1.2629    1.7964   -0.3659 H   0  0  0  0  0  0  0  0  0  0  0  0
   -1.3764    0.5525   -1.6597 H   0  0  0  0  0  0  0  0  0  0  0  0
  2  1  1  0
  3  2  1  0
  3  1  1  0
  4  3  1  0
  5  4  1  0
  6  5  1  0
  6  3  1  0
  7  1  1  0
  8  1  1  0
  9  2  1  0
 10  2  1  0
 11  4  1  0
 12  4  1  0
 13  6  1  0
 14  6  1  0
M  END
