
     RDKit          3D

 16 16  0  0  0  0  0  0  0  0999 V2000
   -0.9858    0.8162    0.3420 C   0  0  0  0  0  0  0  0  0  0  0  0
    0.2830    1.3021   -0.3753 C   0  0  0  0  0  0  0  0  0  0  0  0
    1.4514    0.4605   -0.1030 N   0  0  0  0  0  0  0  0  0  0  0  0
    1.1599   -0.9496   -0.3513 C   0  0  0  0  0  0  0  0  0  0  0  0
   -0.0261   -1.4944    0.3058 N   0  0  0  0  0  0  0  0  0  0  0  0
   -1.2096   -0.6729    0.0373 C   0  0  0  0  0  0  0  0  0  0  0  0
   -1.8559    1.4089    0.0296 H   0  0  0  0  0  0  0  0  0  0  0  0
   -0.8680    0.9536    1.4271 H   0  0  0  0  0  0  0  0  0  0  0  0
    0.1139    1.2871   -1.4618 H   0  0  0  0  0  0  0  0  0  0  0  0
    0.5218    2.3366   -0.1047 H   0  0  0  0  0  0  0  0  0  0  0  0
    1.7498    0.5863    0.8607 H   0  0  0  0  0  0  0  0  0  0  0  0
    1.0169   -1.0678   -1.4340 H   0  0  0  0  0  0  0  0  0  0  0  0
    2.0298   -1.5469   -0.0612 H   0  0  0  0  0  0  0  0  0  0  0  0
    0.1317   -1.5538    1.3083 H   0  0  0  0  0  0  0  0  0  0  0  0
   -1.4579   -0.7926   -1.0272 H   0  0  0  0  0  0  0  0  0  0  0  0
   -2.0549   -1.0735    0.6079 H   0  0  0  0  0  0  0  0  0  0  0  0
  2  1  1  0
  3  2  1  0
  4  3  1  0
  5  4  1  0
  6  5  1  0
  6  1  1  0
  7  1  1  0
  8  1  1  0
  9  2  1  0
 10  2  1  0
 11  3  1  0
 12  4  1  0
 13  4  1  0
 14  5  1  0
 15  6  1  0
 16  6  1  0
M  END
