
     RDKit          3D

 26 27  0  0  0  0  0  0  0  0999 V2000
    2.5227    0.2583   -0.0007 C   0  0  0  0  0  0  0  0  0  0  0  0
    2.1607   -1.1104   -0.6107 C   0  0  0  0  0  0  0  0  0  0  0  0
    0.7005   -1.2644   -0.6953 N   0  0  0  0  0  0  0  0  0  0  0  0
    0.0120   -0.6194    0.4193 C   0  0  2  0  0  0  0  0  0  0  0  0
   -1.4246   -1.1283    0.5851 C   0  0  0  0  0  0  0  0  0  0  0  0
   -2.3913   -0.5532   -0.4519 C   0  0  0  0  0  0  0  0  0  0  0  0
   -2.3068    0.9707   -0.4108 C   0  0  0  0  0  0  0  0  0  0  0  0
   -0.9434    1.3610   -0.7455 N   0  0  0  0  0  0  0  0  0  0  0  0
    0.0740    0.9102    0.2044 C   0  0  2  0  0  0  0  0  0  0  0  0
    1.4595    1.3001   -0.3554 C   0  0  0  0  0  0  0  0  0  0  0  0
    3.5069    0.5720   -0.3663 H   0  0  0  0  0  0  0  0  0  0  0  0
    2.6090    0.1775    1.0903 H   0  0  0  0  0  0  0  0  0  0  0  0
    2.6288   -1.9065   -0.0059 H   0  0  0  0  0  0  0  0  0  0  0  0
    2.5723   -1.1841   -1.6254 H   0  0  0  0  0  0  0  0  0  0  0  0
    0.4510   -2.2449   -0.7533 H   0  0  0  0  0  0  0  0  0  0  0  0
    0.5332   -0.8287    1.3727 H   0  0  0  0  0  0  0  0  0  0  0  0
   -1.7715   -0.8362    1.5863 H   0  0  0  0  0  0  0  0  0  0  0  0
   -1.4253   -2.2268    0.5655 H   0  0  0  0  0  0  0  0  0  0  0  0
   -2.1202   -0.8921   -1.4579 H   0  0  0  0  0  0  0  0  0  0  0  0
   -3.4145   -0.8869   -0.2387 H   0  0  0  0  0  0  0  0  0  0  0  0
   -2.9838    1.4172   -1.1477 H   0  0  0  0  0  0  0  0  0  0  0  0
   -2.6220    1.3255    0.5916 H   0  0  0  0  0  0  0  0  0  0  0  0
   -0.8708    2.3653   -0.8686 H   0  0  0  0  0  0  0  0  0  0  0  0
   -0.0740    1.3751    1.1998 H   0  0  0  0  0  0  0  0  0  0  0  0
    1.3630    1.3559   -1.4458 H   0  0  0  0  0  0  0  0  0  0  0  0
    1.7547    2.2933    0.0050 H   0  0  0  0  0  0  0  0  0  0  0  0
  2  1  1  0
  3  2  1  0
  4  3  1  0
  5  4  1  0
  6  5  1  0
  7  6  1  0
  8  7  1  0
  9  8  1  0
  9  4  1  0
 10  9  1  0
 10  1  1  0
 11  1  1  0
 12  1  1  0
 13  2  1  0
 14  2  1  0
 15  3  1  0
  4 16  1  1
 17  5  1  0
 18  5  1  0
 19  6  1  0
 20  6  1  0
 21  7  1  0
 22  7  1  0
 23  8  1  0
  9 24  1  1
 25 10  1  0
 26 10  1  0
M  END
