
     RDKit          3D

  8  8  0  0  0  0  0  0  0  0999 V2000
    0.0149    0.7858   -0.0270 C   0  0  0  0  0  0  0  0  0  0  0  0
    1.0845   -0.1595   -0.0330 C   0  0  0  0  0  0  0  0  0  0  0  0
    0.6494   -1.3928    0.0240 N   0  0  0  0  0  0  0  0  0  0  0  0
   -0.7293   -1.3005    0.0697 O   0  0  0  0  0  0  0  0  0  0  0  0
   -1.0874   -0.0058    0.0386 C   0  0  0  0  0  0  0  0  0  0  0  0
    0.0664    1.8640   -0.0651 H   0  0  0  0  0  0  0  0  0  0  0  0
    2.1519    0.0188   -0.0766 H   0  0  0  0  0  0  0  0  0  0  0  0
   -2.1504    0.1900    0.0694 H   0  0  0  0  0  0  0  0  0  0  0  0
  2  1  1  0
  3  2  2  0
  4  3  1  0
  5  4  1  0
  5  1  2  0
  6  1  1  0
  7  2  1  0
  8  5  1  0
M  END
