
     RDKit          3D

 14 14  0  0  0  0  0  0  0  0999 V2000
   -0.5253   -0.9699   -0.4906 C   0  0  0  0  0  0  0  0  0  0  0  0
   -1.2320    0.3295   -0.0850 C   0  0  0  0  0  0  0  0  0  0  0  0
   -0.2623    1.4182   -0.2567 N   0  0  0  0  0  0  0  0  0  0  0  0
    0.7986    1.1961    0.6867 O   0  0  0  0  0  0  0  0  0  0  0  0
    1.5195    0.0538    0.2199 C   0  0  0  0  0  0  0  0  0  0  0  0
    0.7312   -1.1548    0.2426 N   0  0  0  0  0  0  0  0  0  0  0  0
   -0.2899   -0.9263   -1.5612 H   0  0  0  0  0  0  0  0  0  0  0  0
   -1.1705   -1.8382   -0.3217 H   0  0  0  0  0  0  0  0  0  0  0  0
   -2.0837    0.5366   -0.7441 H   0  0  0  0  0  0  0  0  0  0  0  0
   -1.5877    0.2605    0.9557 H   0  0  0  0  0  0  0  0  0  0  0  0
   -0.6582    2.2963    0.0674 H   0  0  0  0  0  0  0  0  0  0  0  0
    2.3775   -0.0405    0.8898 H   0  0  0  0  0  0  0  0  0  0  0  0
    1.8479    0.2482   -0.8089 H   0  0  0  0  0  0  0  0  0  0  0  0
    0.5349   -1.4095    1.2063 H   0  0  0  0  0  0  0  0  0  0  0  0
  2  1  1  0
  3  2  1  0
  4  3  1  0
  5  4  1  0
  6  5  1  0
  6  1  1  0
  7  1  1  0
  8  1  1  0
  9  2  1  0
 10  2  1  0
 11  3  1  0
 12  5  1  0
 13  5  1  0
 14  6  1  0
M  END
