
     RDKit          3D

 26 27  0  0  0  0  0  0  0  0999 V2000
    1.9405   -1.2715   -0.1112 C   0  0  0  0  0  0  0  0  0  0  0  0
    2.7315    0.0484   -0.2168 C   0  0  0  0  0  0  0  0  0  0  0  0
    1.8001    1.1876   -0.2593 N   0  0  0  0  0  0  0  0  0  0  0  0
    0.6444    0.9646    0.6015 C   0  0  0  0  0  0  0  0  0  0  0  0
   -0.2946   -0.0600   -0.0824 C   0  0  1  0  0  0  0  0  0  0  0  0
    0.5776   -1.1217   -0.7898 C   0  0  0  0  0  0  0  0  0  0  0  0
   -1.3028   -0.6302    0.9547 C   0  0  0  0  0  0  0  0  0  0  0  0
   -2.6984   -0.2677    0.4127 C   0  0  0  0  0  0  0  0  0  0  0  0
   -2.4039    0.9716   -0.4353 C   0  0  0  0  0  0  0  0  0  0  0  0
   -1.1628    0.5748   -1.0923 N   0  0  0  0  0  0  0  0  0  0  0  0
    2.5188   -2.0827   -0.5673 H   0  0  0  0  0  0  0  0  0  0  0  0
    1.7989   -1.5453    0.9426 H   0  0  0  0  0  0  0  0  0  0  0  0
    3.4360    0.1211    0.6294 H   0  0  0  0  0  0  0  0  0  0  0  0
    3.3227    0.0567   -1.1410 H   0  0  0  0  0  0  0  0  0  0  0  0
    2.2786    2.0486   -0.0244 H   0  0  0  0  0  0  0  0  0  0  0  0
    0.9311    0.6028    1.6063 H   0  0  0  0  0  0  0  0  0  0  0  0
    0.1043    1.9089    0.7426 H   0  0  0  0  0  0  0  0  0  0  0  0
    0.0392   -2.0758   -0.8271 H   0  0  0  0  0  0  0  0  0  0  0  0
    0.7236   -0.7992   -1.8267 H   0  0  0  0  0  0  0  0  0  0  0  0
   -1.1727   -1.7076    1.1002 H   0  0  0  0  0  0  0  0  0  0  0  0
   -1.1474   -0.1528    1.9303 H   0  0  0  0  0  0  0  0  0  0  0  0
   -3.0809   -1.0636   -0.2355 H   0  0  0  0  0  0  0  0  0  0  0  0
   -3.4298   -0.0850    1.2067 H   0  0  0  0  0  0  0  0  0  0  0  0
   -2.2965    1.8573    0.2195 H   0  0  0  0  0  0  0  0  0  0  0  0
   -3.1827    1.1893   -1.1742 H   0  0  0  0  0  0  0  0  0  0  0  0
   -0.6750    1.3310   -1.5631 H   0  0  0  0  0  0  0  0  0  0  0  0
  2  1  1  0
  3  2  1  0
  4  3  1  0
  5  4  1  0
  6  5  1  0
  6  1  1  0
  7  5  1  0
  8  7  1  0
  9  8  1  0
 10  9  1  0
  5 10  1  6
 11  1  1  0
 12  1  1  0
 13  2  1  0
 14  2  1  0
 15  3  1  0
 16  4  1  0
 17  4  1  0
 18  6  1  0
 19  6  1  0
 20  7  1  0
 21  7  1  0
 22  8  1  0
 23  8  1  0
 24  9  1  0
 25  9  1  0
 26 10  1  0
M  END
