
     RDKit          3D

 16 16  0  0  0  0  0  0  0  0999 V2000
   -1.0553    0.9615    0.1229 C   0  0  0  0  0  0  0  0  0  0  0  0
   -1.3242   -0.5244   -0.1555 C   0  0  0  0  0  0  0  0  0  0  0  0
   -0.2622   -1.4024    0.3425 N   0  0  0  0  0  0  0  0  0  0  0  0
    1.0553   -0.9615   -0.1229 C   0  0  0  0  0  0  0  0  0  0  0  0
    1.3242    0.5244    0.1555 C   0  0  0  0  0  0  0  0  0  0  0  0
    0.2622    1.4024   -0.3425 N   0  0  0  0  0  0  0  0  0  0  0  0
   -1.1009    1.1422    1.2072 H   0  0  0  0  0  0  0  0  0  0  0  0
   -1.8231    1.5913   -0.3428 H   0  0  0  0  0  0  0  0  0  0  0  0
   -1.4019   -0.6825   -1.2416 H   0  0  0  0  0  0  0  0  0  0  0  0
   -2.2778   -0.8384    0.2864 H   0  0  0  0  0  0  0  0  0  0  0  0
   -0.2781   -1.4129    1.3590 H   0  0  0  0  0  0  0  0  0  0  0  0
    1.8231   -1.5912    0.3428 H   0  0  0  0  0  0  0  0  0  0  0  0
    1.1009   -1.1422   -1.2072 H   0  0  0  0  0  0  0  0  0  0  0  0
    2.2778    0.8384   -0.2864 H   0  0  0  0  0  0  0  0  0  0  0  0
    1.4019    0.6825    1.2415 H   0  0  0  0  0  0  0  0  0  0  0  0
    0.2780    1.4129   -1.3590 H   0  0  0  0  0  0  0  0  0  0  0  0
  2  1  1  0
  3  2  1  0
  4  3  1  0
  5  4  1  0
  6  5  1  0
  6  1  1  0
  7  1  1  0
  8  1  1  0
  9  2  1  0
 10  2  1  0
 11  3  1  0
 12  4  1  0
 13  4  1  0
 14  5  1  0
 15  5  1  0
 16  6  1  0
M  END
