
     RDKit          3D

 15 15  0  0  0  0  0  0  0  0999 V2000
   -1.1682   -0.6032    0.0129 C   0  0  0  0  0  0  0  0  0  0  0  0
    0.2309   -1.2237    0.0420 C   0  0  0  0  0  0  0  0  0  0  0  0
    1.0907   -0.3502    0.8409 N   0  0  0  0  0  0  0  0  0  0  0  0
    1.1355    0.9889    0.2766 C   0  0  0  0  0  0  0  0  0  0  0  0
   -0.1416    1.5848    0.3116 O   0  0  0  0  0  0  0  0  0  0  0  0
   -1.0704    0.8435   -0.4723 C   0  0  0  0  0  0  0  0  0  0  0  0
   -1.5893   -0.6177    1.0241 H   0  0  0  0  0  0  0  0  0  0  0  0
   -1.8303   -1.1744   -0.6496 H   0  0  0  0  0  0  0  0  0  0  0  0
    0.2071   -2.2187    0.4982 H   0  0  0  0  0  0  0  0  0  0  0  0
    0.6004   -1.3349   -0.9962 H   0  0  0  0  0  0  0  0  0  0  0  0
    2.0284   -0.7272    0.9286 H   0  0  0  0  0  0  0  0  0  0  0  0
    1.7981    1.6162    0.8785 H   0  0  0  0  0  0  0  0  0  0  0  0
    1.4890    0.9840   -0.7772 H   0  0  0  0  0  0  0  0  0  0  0  0
   -2.0272    1.3661   -0.3882 H   0  0  0  0  0  0  0  0  0  0  0  0
   -0.7531    0.8666   -1.5299 H   0  0  0  0  0  0  0  0  0  0  0  0
  2  1  1  0
  3  2  1  0
  4  3  1  0
  5  4  1  0
  6  5  1  0
  6  1  1  0
  7  1  1  0
  8  1  1  0
  9  2  1  0
 10  2  1  0
 11  3  1  0
 12  4  1  0
 13  4  1  0
 14  6  1  0
 15  6  1  0
M  END
