
     RDKit          3D

 23 24  0  0  0  0  0  0  0  0999 V2000
   -1.7002    0.9324   -0.0774 C   0  0  0  0  0  0  0  0  0  0  0  0
   -2.3551   -0.4633    0.0662 C   0  0  0  0  0  0  0  0  0  0  0  0
   -1.3848   -1.5677    0.0976 N   0  0  0  0  0  0  0  0  0  0  0  0
   -0.1302   -1.1688    0.7275 C   0  0  0  0  0  0  0  0  0  0  0  0
    0.6160   -0.0323   -0.0015 C   0  0  0  0  0  0  0  0  0  0  0  0
   -0.3741    0.8027   -0.8287 C   0  0  0  0  0  0  0  0  0  0  0  0
    1.9048   -0.3755   -0.7949 C   0  0  0  0  0  0  0  0  0  0  0  0
    2.5659    0.8020   -0.1891 N   0  0  0  0  0  0  0  0  0  0  0  0
    1.5478    0.8329    0.8835 C   0  0  0  0  0  0  0  0  0  0  0  0
   -2.3837    1.6189   -0.5904 H   0  0  0  0  0  0  0  0  0  0  0  0
   -1.5087    1.3655    0.9138 H   0  0  0  0  0  0  0  0  0  0  0  0
   -2.9597   -0.5015    0.9822 H   0  0  0  0  0  0  0  0  0  0  0  0
   -3.0374   -0.6464   -0.7718 H   0  0  0  0  0  0  0  0  0  0  0  0
   -1.2041   -1.9021   -0.8426 H   0  0  0  0  0  0  0  0  0  0  0  0
   -0.3698   -0.8418    1.7494 H   0  0  0  0  0  0  0  0  0  0  0  0
    0.5163   -2.0490    0.8283 H   0  0  0  0  0  0  0  0  0  0  0  0
    0.0674    1.7795   -1.0556 H   0  0  0  0  0  0  0  0  0  0  0  0
   -0.5514    0.3070   -1.7943 H   0  0  0  0  0  0  0  0  0  0  0  0
    1.8422   -0.3445   -1.8901 H   0  0  0  0  0  0  0  0  0  0  0  0
    2.3348   -1.3403   -0.4833 H   0  0  0  0  0  0  0  0  0  0  0  0
    3.5217    0.6587    0.1187 H   0  0  0  0  0  0  0  0  0  0  0  0
    1.1952    1.8365    1.1542 H   0  0  0  0  0  0  0  0  0  0  0  0
    1.8472    0.2973    1.7984 H   0  0  0  0  0  0  0  0  0  0  0  0
  2  1  1  0
  3  2  1  0
  4  3  1  0
  5  4  1  0
  6  5  1  0
  6  1  1  0
  7  5  1  0
  8  7  1  0
  9  8  1  0
  9  5  1  0
 10  1  1  0
 11  1  1  0
 12  2  1  0
 13  2  1  0
 14  3  1  0
 15  4  1  0
 16  4  1  0
 17  6  1  0
 18  6  1  0
 19  7  1  0
 20  7  1  0
 21  8  1  0
 22  9  1  0
 23  9  1  0
M  END
