
     RDKit          3D

 20 21  0  0  0  0  0  0  0  0999 V2000
    2.0715   -0.0017    0.2909 C   0  0  0  0  0  0  0  0  0  0  0  0
    1.3607   -0.6667   -0.8931 C   0  0  0  0  0  0  0  0  0  0  0  0
    0.0901   -1.2223   -0.4211 N   0  0  0  0  0  0  0  0  0  0  0  0
   -0.7523   -0.1827    0.1314 C   0  0  0  0  0  0  0  0  0  0  0  0
   -1.6104    0.6696   -0.7803 C   0  0  0  0  0  0  0  0  0  0  0  0
   -2.2305   -0.3743    0.1336 C   0  0  0  0  0  0  0  0  0  0  0  0
   -0.0633    0.4844    1.3094 C   0  0  0  0  0  0  0  0  0  0  0  0
    1.2546    1.0179    0.9550 N   0  0  0  0  0  0  0  0  0  0  0  0
    2.3157   -0.7717    1.0338 H   0  0  0  0  0  0  0  0  0  0  0  0
    3.0103    0.4584   -0.0374 H   0  0  0  0  0  0  0  0  0  0  0  0
    1.2139    0.0824   -1.6944 H   0  0  0  0  0  0  0  0  0  0  0  0
    1.9769   -1.4797   -1.2944 H   0  0  0  0  0  0  0  0  0  0  0  0
   -0.3902   -1.7202   -1.1631 H   0  0  0  0  0  0  0  0  0  0  0  0
   -1.5875    0.4513   -1.8460 H   0  0  0  0  0  0  0  0  0  0  0  0
   -1.7633    1.7192   -0.5373 H   0  0  0  0  0  0  0  0  0  0  0  0
   -2.7929   -0.0312    0.9990 H   0  0  0  0  0  0  0  0  0  0  0  0
   -2.6252   -1.2790   -0.3247 H   0  0  0  0  0  0  0  0  0  0  0  0
   -0.6819    1.2969    1.7063 H   0  0  0  0  0  0  0  0  0  0  0  0
    0.0720   -0.2591    2.1055 H   0  0  0  0  0  0  0  0  0  0  0  0
    1.1319    1.8081    0.3267 H   0  0  0  0  0  0  0  0  0  0  0  0
  2  1  1  0
  3  2  1  0
  4  3  1  0
  5  4  1  0
  6  5  1  0
  6  4  1  0
  7  4  1  0
  8  7  1  0
  8  1  1  0
  9  1  1  0
 10  1  1  0
 11  2  1  0
 12  2  1  0
 13  3  1  0
 14  5  1  0
 15  5  1  0
 16  6  1  0
 17  6  1  0
 18  7  1  0
 19  7  1  0
 20  8  1  0
M  END
