
     RDKit          3D

 17 18  0  0  0  0  0  0  0  0999 V2000
   -1.4157    0.6734   -0.0493 C   0  0  0  0  0  0  0  0  0  0  0  0
   -1.3762   -0.8483   -0.0125 C   0  0  0  0  0  0  0  0  0  0  0  0
   -0.1609   -1.2488    0.6958 N   0  0  0  0  0  0  0  0  0  0  0  0
    1.0488   -0.7680    0.0592 C   0  0  2  0  0  0  0  0  0  0  0  0
    1.7045    0.4679    0.6373 C   0  0  0  0  0  0  0  0  0  0  0  0
    0.9666    0.5334   -0.6864 C   0  0  2  0  0  0  0  0  0  0  0  0
   -0.3167    1.1674   -0.8827 N   0  0  0  0  0  0  0  0  0  0  0  0
   -2.3583    1.0177   -0.4906 H   0  0  0  0  0  0  0  0  0  0  0  0
   -1.3686    1.0366    0.9913 H   0  0  0  0  0  0  0  0  0  0  0  0
   -2.2422   -1.2264    0.5411 H   0  0  0  0  0  0  0  0  0  0  0  0
   -1.4237   -1.2321   -1.0464 H   0  0  0  0  0  0  0  0  0  0  0  0
   -0.1181   -2.2493    0.8361 H   0  0  0  0  0  0  0  0  0  0  0  0
    1.6947   -1.5349   -0.3674 H   0  0  0  0  0  0  0  0  0  0  0  0
    1.2069    0.8743    1.5141 H   0  0  0  0  0  0  0  0  0  0  0  0
    2.7884    0.5579    0.6268 H   0  0  0  0  0  0  0  0  0  0  0  0
    1.5965    0.6057   -1.5712 H   0  0  0  0  0  0  0  0  0  0  0  0
   -0.2262    2.1735   -0.7950 H   0  0  0  0  0  0  0  0  0  0  0  0
  2  1  1  0
  3  2  1  0
  4  3  1  0
  5  4  1  0
  6  5  1  0
  6  4  1  0
  7  6  1  0
  7  1  1  0
  8  1  1  0
  9  1  1  0
 10  2  1  0
 11  2  1  0
 12  3  1  0
  4 13  1  6
 14  5  1  0
 15  5  1  0
  6 16  1  6
 17  7  1  0
M  END
