
     RDKit          3D

 21 22  0  0  0  0  0  0  0  0999 V2000
   -2.3175   -0.1934    0.1635 C   0  0  0  0  0  0  0  0  0  0  0  0
   -1.3698    0.4158    1.2122 C   0  0  0  0  0  0  0  0  0  0  0  0
   -0.0876   -0.2840    1.0988 N   0  0  0  0  0  0  0  0  0  0  0  0
    0.6055    0.0440   -0.1331 C   0  0  0  0  0  0  0  0  0  0  0  0
    1.7943   -0.8829   -0.4835 C   0  0  0  0  0  0  0  0  0  0  0  0
    2.6029    0.3095   -0.8322 N   0  0  0  0  0  0  0  0  0  0  0  0
    1.6210    1.2167   -0.1933 C   0  0  0  0  0  0  0  0  0  0  0  0
   -0.3362    0.2058   -1.1721 O   0  0  0  0  0  0  0  0  0  0  0  0
   -1.4682   -0.6523   -1.0331 C   0  0  0  0  0  0  0  0  0  0  0  0
   -2.8542   -1.0531    0.5817 H   0  0  0  0  0  0  0  0  0  0  0  0
   -3.0598    0.5503   -0.1471 H   0  0  0  0  0  0  0  0  0  0  0  0
   -1.2677    1.4998    1.0429 H   0  0  0  0  0  0  0  0  0  0  0  0
   -1.7586    0.2727    2.2248 H   0  0  0  0  0  0  0  0  0  0  0  0
    0.5127   -0.1279    1.8993 H   0  0  0  0  0  0  0  0  0  0  0  0
    1.6273   -1.5759   -1.3151 H   0  0  0  0  0  0  0  0  0  0  0  0
    2.1467   -1.4383    0.3975 H   0  0  0  0  0  0  0  0  0  0  0  0
    3.5320    0.3289   -0.4280 H   0  0  0  0  0  0  0  0  0  0  0  0
    1.3219    2.0657   -0.8160 H   0  0  0  0  0  0  0  0  0  0  0  0
    1.9046    1.5695    0.8099 H   0  0  0  0  0  0  0  0  0  0  0  0
   -2.0138   -0.5811   -1.9774 H   0  0  0  0  0  0  0  0  0  0  0  0
   -1.1352   -1.6901   -0.8998 H   0  0  0  0  0  0  0  0  0  0  0  0
  2  1  1  0
  3  2  1  0
  4  3  1  0
  5  4  1  0
  6  5  1  0
  7  6  1  0
  7  4  1  0
  8  4  1  0
  9  8  1  0
  9  1  1  0
 10  1  1  0
 11  1  1  0
 12  2  1  0
 13  2  1  0
 14  3  1  0
 15  5  1  0
 16  5  1  0
 17  6  1  0
 18  7  1  0
 19  7  1  0
 20  9  1  0
 21  9  1  0
M  END
