
     RDKit          3D

 23 24  0  0  0  0  0  0  0  0999 V2000
   -2.1801   -0.6179   -0.1088 C   0  0  0  0  0  0  0  0  0  0  0  0
   -2.1324    0.5949    0.8670 C   0  0  0  0  0  0  0  0  0  0  0  0
   -0.8641    1.3058    0.6309 N   0  0  0  0  0  0  0  0  0  0  0  0
    0.0625    0.2958    0.1048 C   0  0  1  0  0  0  0  0  0  0  0  0
   -0.8014   -0.6058   -0.8021 C   0  0  0  0  0  0  0  0  0  0  0  0
    1.2978    0.9073   -0.5748 C   0  0  0  0  0  0  0  0  0  0  0  0
    2.4479   -0.0940   -0.3109 C   0  0  0  0  0  0  0  0  0  0  0  0
    1.8475   -1.1346    0.5438 N   0  0  0  0  0  0  0  0  0  0  0  0
    0.7120   -0.5228    1.2326 C   0  0  0  0  0  0  0  0  0  0  0  0
   -2.9955   -0.5248   -0.8336 H   0  0  0  0  0  0  0  0  0  0  0  0
   -2.3443   -1.5517    0.4397 H   0  0  0  0  0  0  0  0  0  0  0  0
   -2.9752    1.2815    0.7391 H   0  0  0  0  0  0  0  0  0  0  0  0
   -2.1531    0.2494    1.9073 H   0  0  0  0  0  0  0  0  0  0  0  0
   -1.0068    2.0113   -0.0869 H   0  0  0  0  0  0  0  0  0  0  0  0
   -0.3627   -1.6012   -0.9212 H   0  0  0  0  0  0  0  0  0  0  0  0
   -0.8745   -0.1484   -1.7972 H   0  0  0  0  0  0  0  0  0  0  0  0
    1.5127    1.8712   -0.1001 H   0  0  0  0  0  0  0  0  0  0  0  0
    1.1323    1.0846   -1.6428 H   0  0  0  0  0  0  0  0  0  0  0  0
    3.2910    0.4188    0.1768 H   0  0  0  0  0  0  0  0  0  0  0  0
    2.8247   -0.5453   -1.2359 H   0  0  0  0  0  0  0  0  0  0  0  0
    2.5174   -1.5483    1.1807 H   0  0  0  0  0  0  0  0  0  0  0  0
    0.0497   -1.2944    1.6426 H   0  0  0  0  0  0  0  0  0  0  0  0
    0.9944    0.1686    2.0446 H   0  0  0  0  0  0  0  0  0  0  0  0
  2  1  1  0
  3  2  1  0
  4  3  1  1
  5  4  1  0
  5  1  1  0
  6  4  1  0
  7  6  1  0
  8  7  1  0
  9  8  1  0
  9  4  1  0
 10  1  1  0
 11  1  1  0
 12  2  1  0
 13  2  1  0
 14  3  1  0
 15  5  1  0
 16  5  1  0
 17  6  1  0
 18  6  1  0
 19  7  1  0
 20  7  1  0
 21  8  1  0
 22  9  1  0
 23  9  1  0
M  END
