
     RDKit          3D

 20 21  0  0  0  0  0  0  0  0999 V2000
    1.8588    0.6486    0.2082 C   0  0  0  0  0  0  0  0  0  0  0  0
    1.7710   -0.5267   -0.8120 C   0  0  0  0  0  0  0  0  0  0  0  0
    0.4876   -1.2179   -0.5862 N   0  0  0  0  0  0  0  0  0  0  0  0
   -0.3852   -0.2071    0.0060 C   0  0  0  0  0  0  0  0  0  0  0  0
    0.5095    0.6021    0.9540 C   0  0  0  0  0  0  0  0  0  0  0  0
   -1.7499   -0.6693    0.5489 C   0  0  0  0  0  0  0  0  0  0  0  0
   -2.3835    0.4889   -0.1244 N   0  0  0  0  0  0  0  0  0  0  0  0
   -1.1964    0.6500   -0.9980 C   0  0  0  0  0  0  0  0  0  0  0  0
    2.7066    0.5393    0.8921 H   0  0  0  0  0  0  0  0  0  0  0  0
    1.9868    1.6022   -0.3152 H   0  0  0  0  0  0  0  0  0  0  0  0
    2.5992   -1.2364   -0.7221 H   0  0  0  0  0  0  0  0  0  0  0  0
    1.7846   -0.1410   -1.8383 H   0  0  0  0  0  0  0  0  0  0  0  0
    0.6201   -1.9620    0.0946 H   0  0  0  0  0  0  0  0  0  0  0  0
    0.6081    0.0535    1.9003 H   0  0  0  0  0  0  0  0  0  0  0  0
    0.0978    1.5902    1.1819 H   0  0  0  0  0  0  0  0  0  0  0  0
   -2.0327   -1.6456    0.1297 H   0  0  0  0  0  0  0  0  0  0  0  0
   -1.8735   -0.6835    1.6387 H   0  0  0  0  0  0  0  0  0  0  0  0
   -3.2509    0.2850   -0.6089 H   0  0  0  0  0  0  0  0  0  0  0  0
   -0.8847    1.6912   -1.1466 H   0  0  0  0  0  0  0  0  0  0  0  0
   -1.2731    0.1386   -1.9667 H   0  0  0  0  0  0  0  0  0  0  0  0
  2  1  1  0
  3  2  1  0
  4  3  1  0
  5  4  1  0
  5  1  1  0
  6  4  1  0
  7  6  1  0
  8  7  1  0
  8  4  1  0
  9  1  1  0
 10  1  1  0
 11  2  1  0
 12  2  1  0
 13  3  1  0
 14  5  1  0
 15  5  1  0
 16  6  1  0
 17  6  1  0
 18  7  1  0
 19  8  1  0
 20  8  1  0
M  END
