
     RDKit          3D

 18 19  0  0  0  0  0  0  0  0999 V2000
   -1.6809   -0.7400   -0.3670 C   0  0  0  0  0  0  0  0  0  0  0  0
   -1.9466    0.4214    0.6055 C   0  0  0  0  0  0  0  0  0  0  0  0
   -0.6414    0.8934    0.9512 O   0  0  0  0  0  0  0  0  0  0  0  0
    0.3217    0.2301    0.1334 C   0  0  0  0  0  0  0  0  0  0  0  0
    1.5633    1.0316   -0.2820 C   0  0  0  0  0  0  0  0  0  0  0  0
    2.4523   -0.0809    0.1630 N   0  0  0  0  0  0  0  0  0  0  0  0
    1.2982   -0.7260    0.8557 C   0  0  0  0  0  0  0  0  0  0  0  0
   -0.3893   -0.3894   -0.9680 N   0  0  0  0  0  0  0  0  0  0  0  0
   -1.5740   -1.6863    0.1762 H   0  0  0  0  0  0  0  0  0  0  0  0
   -2.4540   -0.8636   -1.1296 H   0  0  0  0  0  0  0  0  0  0  0  0
   -2.5082    1.2342    0.1245 H   0  0  0  0  0  0  0  0  0  0  0  0
   -2.4723    0.1152    1.5161 H   0  0  0  0  0  0  0  0  0  0  0  0
    1.7036    1.9225    0.3376 H   0  0  0  0  0  0  0  0  0  0  0  0
    1.6351    1.3037   -1.3420 H   0  0  0  0  0  0  0  0  0  0  0  0
    2.7269   -0.6411   -0.6378 H   0  0  0  0  0  0  0  0  0  0  0  0
    1.3385   -0.5410    1.9337 H   0  0  0  0  0  0  0  0  0  0  0  0
    1.1622   -1.7941    0.6561 H   0  0  0  0  0  0  0  0  0  0  0  0
   -0.5350    0.3103   -1.6928 H   0  0  0  0  0  0  0  0  0  0  0  0
  2  1  1  0
  3  2  1  0
  4  3  1  0
  5  4  1  0
  6  5  1  0
  7  6  1  0
  7  4  1  0
  8  4  1  0
  8  1  1  0
  9  1  1  0
 10  1  1  0
 11  2  1  0
 12  2  1  0
 13  5  1  0
 14  5  1  0
 15  6  1  0
 16  7  1  0
 17  7  1  0
 18  8  1  0
M  END
