
     RDKit          3D

 24 25  0  0  0  0  0  0  0  0999 V2000
    2.5656    0.2346   -0.5062 C   0  0  0  0  0  0  0  0  0  0  0  0
    1.5068    1.3318   -0.3132 C   0  0  0  0  0  0  0  0  0  0  0  0
    0.2381    0.8839   -0.7488 O   0  0  0  0  0  0  0  0  0  0  0  0
   -0.2885   -0.1855    0.0655 C   0  0  1  0  0  0  0  0  0  0  0  0
   -1.2928    0.3913    1.0771 C   0  0  0  0  0  0  0  0  0  0  0  0
   -2.6424    0.4207    0.3027 C   0  0  0  0  0  0  0  0  0  0  0  0
   -2.3995   -0.1556   -1.0350 N   0  0  0  0  0  0  0  0  0  0  0  0
   -1.2017   -0.9828   -0.8754 C   0  0  0  0  0  0  0  0  0  0  0  0
    0.8541   -0.9869    0.7030 C   0  0  0  0  0  0  0  0  0  0  0  0
    1.9468   -1.0742   -0.2569 N   0  0  0  0  0  0  0  0  0  0  0  0
    2.9438    0.2534   -1.5350 H   0  0  0  0  0  0  0  0  0  0  0  0
    3.4109    0.4450    0.1714 H   0  0  0  0  0  0  0  0  0  0  0  0
    1.7525    2.2147   -0.9100 H   0  0  0  0  0  0  0  0  0  0  0  0
    1.4579    1.6462    0.7412 H   0  0  0  0  0  0  0  0  0  0  0  0
   -1.3579   -0.2583    1.9590 H   0  0  0  0  0  0  0  0  0  0  0  0
   -0.9698    1.3815    1.4143 H   0  0  0  0  0  0  0  0  0  0  0  0
   -3.0513    1.4307    0.2056 H   0  0  0  0  0  0  0  0  0  0  0  0
   -3.3919   -0.1878    0.8229 H   0  0  0  0  0  0  0  0  0  0  0  0
   -2.1630    0.5988   -1.6723 H   0  0  0  0  0  0  0  0  0  0  0  0
   -1.4798   -1.9354   -0.4023 H   0  0  0  0  0  0  0  0  0  0  0  0
   -0.7196   -1.1903   -1.8331 H   0  0  0  0  0  0  0  0  0  0  0  0
    0.4920   -1.9951    0.9310 H   0  0  0  0  0  0  0  0  0  0  0  0
    1.1519   -0.5258    1.6629 H   0  0  0  0  0  0  0  0  0  0  0  0
    2.6381   -1.7550    0.0319 H   0  0  0  0  0  0  0  0  0  0  0  0
  2  1  1  0
  3  2  1  0
  4  3  1  6
  5  4  1  0
  6  5  1  0
  7  6  1  0
  8  7  1  0
  8  4  1  0
  9  4  1  0
 10  9  1  0
 10  1  1  0
 11  1  1  0
 12  1  1  0
 13  2  1  0
 14  2  1  0
 15  5  1  0
 16  5  1  0
 17  6  1  0
 18  6  1  0
 19  7  1  0
 20  8  1  0
 21  8  1  0
 22  9  1  0
 23  9  1  0
 24 10  1  0
M  END
