
     RDKit          3D

 21 22  0  0  0  0  0  0  0  0999 V2000
   -2.3605   -0.1045    0.2218 C   0  0  0  0  0  0  0  0  0  0  0  0
   -1.4997   -1.0958   -0.5867 C   0  0  0  0  0  0  0  0  0  0  0  0
   -0.2328   -1.2613    0.0372 O   0  0  0  0  0  0  0  0  0  0  0  0
    0.5529   -0.0813   -0.0040 C   0  0  0  0  0  0  0  0  0  0  0  0
   -0.3318    1.1777    0.0524 C   0  0  0  0  0  0  0  0  0  0  0  0
   -1.5442    0.9542    0.8313 N   0  0  0  0  0  0  0  0  0  0  0  0
    1.6902   -0.1126    1.0338 C   0  0  0  0  0  0  0  0  0  0  0  0
    2.6011    0.4311   -0.0011 N   0  0  0  0  0  0  0  0  0  0  0  0
    1.6758   -0.0148   -1.0705 C   0  0  0  0  0  0  0  0  0  0  0  0
   -2.8958   -0.6305    1.0191 H   0  0  0  0  0  0  0  0  0  0  0  0
   -3.1151    0.3456   -0.4388 H   0  0  0  0  0  0  0  0  0  0  0  0
   -1.3653   -0.7497   -1.6230 H   0  0  0  0  0  0  0  0  0  0  0  0
   -1.9605   -2.0868   -0.6242 H   0  0  0  0  0  0  0  0  0  0  0  0
   -0.6286    1.4798   -0.9608 H   0  0  0  0  0  0  0  0  0  0  0  0
    0.2447    2.0076    0.4726 H   0  0  0  0  0  0  0  0  0  0  0  0
   -1.2875    0.6821    1.7743 H   0  0  0  0  0  0  0  0  0  0  0  0
    1.5828    0.5133    1.9286 H   0  0  0  0  0  0  0  0  0  0  0  0
    1.9035   -1.1497    1.3260 H   0  0  0  0  0  0  0  0  0  0  0  0
    3.5248    0.0133   -0.0252 H   0  0  0  0  0  0  0  0  0  0  0  0
    1.8881   -1.0172   -1.4676 H   0  0  0  0  0  0  0  0  0  0  0  0
    1.5579    0.6994   -1.8948 H   0  0  0  0  0  0  0  0  0  0  0  0
  2  1  1  0
  3  2  1  0
  4  3  1  0
  5  4  1  0
  6  5  1  0
  6  1  1  0
  7  4  1  0
  8  7  1  0
  9  8  1  0
  9  4  1  0
 10  1  1  0
 11  1  1  0
 12  2  1  0
 13  2  1  0
 14  5  1  0
 15  5  1  0
 16  6  1  0
 17  7  1  0
 18  7  1  0
 19  8  1  0
 20  9  1  0
 21  9  1  0
M  END
