
     RDKit          3D

 21 22  0  0  0  0  0  0  0  0999 V2000
    1.6363    0.0894    0.8818 C   0  0  0  0  0  0  0  0  0  0  0  0
    2.3860    0.0292   -0.4704 C   0  0  0  0  0  0  0  0  0  0  0  0
    1.4760    0.1389   -1.5625 O   0  0  0  0  0  0  0  0  0  0  0  0
    0.2901   -0.5916   -1.3024 C   0  0  0  0  0  0  0  0  0  0  0  0
   -0.5244    0.0840   -0.1830 C   0  0  0  0  0  0  0  0  0  0  0  0
   -1.7261    0.9706   -0.5905 C   0  0  0  0  0  0  0  0  0  0  0  0
   -2.5901    0.2364    0.3593 N   0  0  0  0  0  0  0  0  0  0  0  0
   -1.5697   -0.8251    0.5110 C   0  0  0  0  0  0  0  0  0  0  0  0
    0.3549    0.7766    0.7594 N   0  0  0  0  0  0  0  0  0  0  0  0
    1.4367   -0.9210    1.2602 H   0  0  0  0  0  0  0  0  0  0  0  0
    2.2506    0.5921    1.6361 H   0  0  0  0  0  0  0  0  0  0  0  0
    2.9624   -0.9065   -0.5581 H   0  0  0  0  0  0  0  0  0  0  0  0
    3.0762    0.8722   -0.5783 H   0  0  0  0  0  0  0  0  0  0  0  0
    0.5397   -1.6291   -1.0184 H   0  0  0  0  0  0  0  0  0  0  0  0
   -0.2747   -0.6289   -2.2387 H   0  0  0  0  0  0  0  0  0  0  0  0
   -1.6297    2.0401   -0.3669 H   0  0  0  0  0  0  0  0  0  0  0  0
   -1.9969    0.8483   -1.6488 H   0  0  0  0  0  0  0  0  0  0  0  0
   -3.4789   -0.0723   -0.0178 H   0  0  0  0  0  0  0  0  0  0  0  0
   -1.3477   -1.0907    1.5503 H   0  0  0  0  0  0  0  0  0  0  0  0
   -1.7777   -1.7379   -0.0690 H   0  0  0  0  0  0  0  0  0  0  0  0
    0.5070    1.7254    0.4308 H   0  0  0  0  0  0  0  0  0  0  0  0
  2  1  1  0
  3  2  1  0
  4  3  1  0
  5  4  1  0
  6  5  1  0
  7  6  1  0
  8  7  1  0
  8  5  1  0
  9  5  1  0
  9  1  1  0
 10  1  1  0
 11  1  1  0
 12  2  1  0
 13  2  1  0
 14  4  1  0
 15  4  1  0
 16  6  1  0
 17  6  1  0
 18  7  1  0
 19  8  1  0
 20  8  1  0
 21  9  1  0
M  END
