
     RDKit          3D

 21 22  0  0  0  0  0  0  0  0999 V2000
   -2.0047    0.6680    0.3987 C   0  0  0  0  0  0  0  0  0  0  0  0
   -2.0844   -0.7118   -0.2777 C   0  0  0  0  0  0  0  0  0  0  0  0
   -0.7971   -1.2046   -0.6359 O   0  0  0  0  0  0  0  0  0  0  0  0
    0.2140   -0.8326    0.2843 C   0  0  1  0  0  0  0  0  0  0  0  0
    1.5714   -1.3563   -0.2405 C   0  0  0  0  0  0  0  0  0  0  0  0
    2.4836   -0.2098   -0.3619 N   0  0  0  0  0  0  0  0  0  0  0  0
    1.6044    0.9397   -0.5909 C   0  0  0  0  0  0  0  0  0  0  0  0
    0.3867    0.7098    0.3198 C   0  0  1  0  0  0  0  0  0  0  0  0
   -0.8373    1.3618   -0.1353 N   0  0  0  0  0  0  0  0  0  0  0  0
   -1.9562    0.5534    1.4973 H   0  0  0  0  0  0  0  0  0  0  0  0
   -2.9101    1.2395    0.1696 H   0  0  0  0  0  0  0  0  0  0  0  0
   -2.6395   -0.6459   -1.2180 H   0  0  0  0  0  0  0  0  0  0  0  0
   -2.5924   -1.4310    0.3844 H   0  0  0  0  0  0  0  0  0  0  0  0
   -0.0298   -1.2342    1.2805 H   0  0  0  0  0  0  0  0  0  0  0  0
    2.0084   -2.1319    0.3949 H   0  0  0  0  0  0  0  0  0  0  0  0
    1.3902   -1.7876   -1.2316 H   0  0  0  0  0  0  0  0  0  0  0  0
    2.9903   -0.0803    0.5085 H   0  0  0  0  0  0  0  0  0  0  0  0
    2.1319    1.8798   -0.3995 H   0  0  0  0  0  0  0  0  0  0  0  0
    1.2639    0.9371   -1.6333 H   0  0  0  0  0  0  0  0  0  0  0  0
    0.6489    0.9971    1.3559 H   0  0  0  0  0  0  0  0  0  0  0  0
   -0.8421    2.3397    0.1302 H   0  0  0  0  0  0  0  0  0  0  0  0
  2  1  1  0
  3  2  1  0
  4  3  1  0
  5  4  1  0
  6  5  1  0
  7  6  1  0
  8  7  1  0
  8  4  1  0
  9  8  1  0
  9  1  1  0
 10  1  1  0
 11  1  1  0
 12  2  1  0
 13  2  1  0
  4 14  1  1
 15  5  1  0
 16  5  1  0
 17  6  1  0
 18  7  1  0
 19  7  1  0
  8 20  1  1
 21  9  1  0
M  END
