
     RDKit          3D

 18 19  0  0  0  0  0  0  0  0999 V2000
   -1.7728   -0.3533    0.6873 C   0  0  0  0  0  0  0  0  0  0  0  0
   -2.2410    0.2680   -0.6283 C   0  0  0  0  0  0  0  0  0  0  0  0
   -0.7122    0.4480   -1.6086 S   0  0  0  0  0  0  0  0  0  0  0  0
    0.3613    0.2231   -0.1581 C   0  0  0  0  0  0  0  0  0  0  0  0
    1.6382    1.0762   -0.0205 C   0  0  0  0  0  0  0  0  0  0  0  0
    2.3447   -0.1347    0.4670 N   0  0  0  0  0  0  0  0  0  0  0  0
    1.3173   -1.0022   -0.1549 C   0  0  0  0  0  0  0  0  0  0  0  0
   -0.5259    0.3433    0.9879 N   0  0  0  0  0  0  0  0  0  0  0  0
   -1.6397   -1.4411    0.5536 H   0  0  0  0  0  0  0  0  0  0  0  0
   -2.4975   -0.1851    1.4908 H   0  0  0  0  0  0  0  0  0  0  0  0
   -2.6874    1.2508   -0.4581 H   0  0  0  0  0  0  0  0  0  0  0  0
   -2.9475   -0.3719   -1.1620 H   0  0  0  0  0  0  0  0  0  0  0  0
    1.5769    1.9019    0.6955 H   0  0  0  0  0  0  0  0  0  0  0  0
    1.9937    1.4456   -0.9924 H   0  0  0  0  0  0  0  0  0  0  0  0
    3.2890   -0.2597    0.1179 H   0  0  0  0  0  0  0  0  0  0  0  0
    1.5592   -1.3321   -1.1744 H   0  0  0  0  0  0  0  0  0  0  0  0
    1.0089   -1.8656    0.4484 H   0  0  0  0  0  0  0  0  0  0  0  0
   -0.0655   -0.0115    1.8214 H   0  0  0  0  0  0  0  0  0  0  0  0
  2  1  1  0
  3  2  1  0
  4  3  1  0
  5  4  1  0
  6  5  1  0
  7  6  1  0
  7  4  1  0
  8  4  1  0
  8  1  1  0
  9  1  1  0
 10  1  1  0
 11  2  1  0
 12  2  1  0
 13  5  1  0
 14  5  1  0
 15  6  1  0
 16  7  1  0
 17  7  1  0
 18  8  1  0
M  END
