
     RDKit          3D

 15 16  0  0  0  0  0  0  0  0999 V2000
    1.8749   -0.8377    0.1695 C   0  0  0  0  0  0  0  0  0  0  0  0
    2.5040    0.3391    0.1915 N   0  0  0  0  0  0  0  0  0  0  0  0
    1.5217    1.2699    0.1151 N   0  0  0  0  0  0  0  0  0  0  0  0
    0.2983    0.7012    0.0233 C   0  0  0  0  0  0  0  0  0  0  0  0
    0.4754   -0.6574    0.0565 C   0  0  0  0  0  0  0  0  0  0  0  0
   -0.8755   -1.3304    0.0547 C   0  0  0  0  0  0  0  0  0  0  0  0
   -1.8245   -0.2184   -0.2522 N   0  0  0  0  0  0  0  0  0  0  0  0
   -1.1567    1.0847    0.0028 C   0  0  0  0  0  0  0  0  0  0  0  0
    2.4590   -1.7478    0.2259 H   0  0  0  0  0  0  0  0  0  0  0  0
    1.7781    2.2434    0.1040 H   0  0  0  0  0  0  0  0  0  0  0  0
   -0.9854   -2.1251   -0.6904 H   0  0  0  0  0  0  0  0  0  0  0  0
   -1.1123   -1.7605    1.0363 H   0  0  0  0  0  0  0  0  0  0  0  0
   -2.0575   -0.2655   -1.2371 H   0  0  0  0  0  0  0  0  0  0  0  0
   -1.4731    1.4937    0.9717 H   0  0  0  0  0  0  0  0  0  0  0  0
   -1.4264    1.8109   -0.7715 H   0  0  0  0  0  0  0  0  0  0  0  0
  2  1  2  0
  3  2  1  0
  4  3  1  0
  5  4  2  0
  5  1  1  0
  6  5  1  0
  7  6  1  0
  8  7  1  0
  8  4  1  0
  9  1  1  0
 10  3  1  0
 11  6  1  0
 12  6  1  0
 13  7  1  0
 14  8  1  0
 15  8  1  0
M  END
