
     RDKit          3D

 13 14  0  0  0  0  0  0  0  0999 V2000
   -0.4349    1.1283   -0.3441 C   0  0  0  0  0  0  0  0  0  0  0  0
   -1.3880    0.1181   -0.8766 N   0  0  0  0  0  0  0  0  0  0  0  0
   -0.8330   -0.9418    0.0069 C   0  0  0  0  0  0  0  0  0  0  0  0
    0.3576   -0.0234    0.2684 C   0  0  0  0  0  0  0  0  0  0  0  0
    1.7904   -0.2973    0.2756 C   0  0  0  0  0  0  0  0  0  0  0  0
    1.0760    0.0439    1.4791 O   0  0  0  0  0  0  0  0  0  0  0  0
   -0.8471    1.7827    0.4365 H   0  0  0  0  0  0  0  0  0  0  0  0
    0.0581    1.7327   -1.1131 H   0  0  0  0  0  0  0  0  0  0  0  0
   -2.3654    0.3334   -0.7152 H   0  0  0  0  0  0  0  0  0  0  0  0
   -0.6393   -1.8942   -0.4981 H   0  0  0  0  0  0  0  0  0  0  0  0
   -1.4048   -1.1188    0.9285 H   0  0  0  0  0  0  0  0  0  0  0  0
    2.1435   -1.3273    0.2280 H   0  0  0  0  0  0  0  0  0  0  0  0
    2.4870    0.4638   -0.0756 H   0  0  0  0  0  0  0  0  0  0  0  0
  2  1  1  0
  3  2  1  0
  4  3  1  0
  4  1  1  0
  5  4  1  0
  6  5  1  0
  6  4  1  0
  7  1  1  0
  8  1  1  0
  9  2  1  0
 10  3  1  0
 11  3  1  0
 12  5  1  0
 13  5  1  0
M  END
