
     RDKit          3D

 20 21  0  0  0  0  0  0  0  0999 V2000
    1.3136   -0.9340    0.1305 C   0  0  0  0  0  0  0  0  0  0  0  0
    1.5779    0.5014    0.0783 N   0  0  0  0  0  0  0  0  0  0  0  0
    0.6197    1.3261    0.8122 C   0  0  0  0  0  0  0  0  0  0  0  0
   -0.8110    0.9382    0.4096 C   0  0  2  0  0  0  0  0  0  0  0  0
   -1.0518   -0.5344    0.7806 C   0  0  0  0  0  0  0  0  0  0  0  0
   -0.1475   -1.1829   -0.2774 C   0  0  1  0  0  0  0  0  0  0  0  0
   -0.5017   -0.3653   -1.5443 C   0  0  0  0  0  0  0  0  0  0  0  0
   -0.9475    0.9658   -1.0577 N   0  0  0  0  0  0  0  0  0  0  0  0
    1.9951   -1.4304   -0.5714 H   0  0  0  0  0  0  0  0  0  0  0  0
    1.4808   -1.3760    1.1313 H   0  0  0  0  0  0  0  0  0  0  0  0
    2.5304    0.7167    0.3449 H   0  0  0  0  0  0  0  0  0  0  0  0
    0.7077    1.2208    1.9109 H   0  0  0  0  0  0  0  0  0  0  0  0
    0.8008    2.3738    0.5502 H   0  0  0  0  0  0  0  0  0  0  0  0
   -1.5195    1.6356    0.8697 H   0  0  0  0  0  0  0  0  0  0  0  0
   -0.7618   -0.7882    1.8068 H   0  0  0  0  0  0  0  0  0  0  0  0
   -2.1052   -0.8051    0.6351 H   0  0  0  0  0  0  0  0  0  0  0  0
   -0.3248   -2.2558   -0.4077 H   0  0  0  0  0  0  0  0  0  0  0  0
   -1.3024   -0.8565   -2.1118 H   0  0  0  0  0  0  0  0  0  0  0  0
    0.3704   -0.2549   -2.1968 H   0  0  0  0  0  0  0  0  0  0  0  0
   -1.9234    1.1051   -1.2932 H   0  0  0  0  0  0  0  0  0  0  0  0
  2  1  1  0
  3  2  1  0
  4  3  1  0
  5  4  1  0
  6  5  1  0
  6  1  1  0
  7  6  1  0
  8  7  1  0
  8  4  1  0
  9  1  1  0
 10  1  1  0
 11  2  1  0
 12  3  1  0
 13  3  1  0
  4 14  1  1
 15  5  1  0
 16  5  1  0
  6 17  1  6
 18  7  1  0
 19  7  1  0
 20  8  1  0
M  END
