
     RDKit          3D

 17 18  0  0  0  0  0  0  0  0999 V2000
    1.4220    0.4244    0.2151 C   0  0  0  0  0  0  0  0  0  0  0  0
    0.8166   -0.6444    1.0601 N   0  0  0  0  0  0  0  0  0  0  0  0
   -0.4697   -0.9563    0.3948 C   0  0  1  0  0  0  0  0  0  0  0  0
   -1.4061    0.2278    0.6726 C   0  0  0  0  0  0  0  0  0  0  0  0
   -0.8553    1.2895   -0.2182 N   0  0  0  0  0  0  0  0  0  0  0  0
    0.3331    0.6815   -0.8497 C   0  0  2  0  0  0  0  0  0  0  0  0
   -0.1737   -0.7438   -1.1024 C   0  0  0  0  0  0  0  0  0  0  0  0
    1.6216    1.3247    0.8095 H   0  0  0  0  0  0  0  0  0  0  0  0
    2.3678    0.1006   -0.2404 H   0  0  0  0  0  0  0  0  0  0  0  0
    1.4085   -1.4677    1.0596 H   0  0  0  0  0  0  0  0  0  0  0  0
   -0.8580   -1.9282    0.7083 H   0  0  0  0  0  0  0  0  0  0  0  0
   -2.4449    0.0017    0.4000 H   0  0  0  0  0  0  0  0  0  0  0  0
   -1.3669    0.5061    1.7311 H   0  0  0  0  0  0  0  0  0  0  0  0
   -0.6018    2.1166    0.3111 H   0  0  0  0  0  0  0  0  0  0  0  0
    0.6682    1.2533   -1.7189 H   0  0  0  0  0  0  0  0  0  0  0  0
    0.5974   -1.4194   -1.4874 H   0  0  0  0  0  0  0  0  0  0  0  0
   -1.0585   -0.7667   -1.7453 H   0  0  0  0  0  0  0  0  0  0  0  0
  2  1  1  0
  3  2  1  0
  4  3  1  0
  5  4  1  0
  6  5  1  0
  6  1  1  0
  7  6  1  0
  7  3  1  0
  8  1  1  0
  9  1  1  0
 10  2  1  0
  3 11  1  6
 12  4  1  0
 13  4  1  0
 14  5  1  0
  6 15  1  6
 16  7  1  0
 17  7  1  0
M  END
