
     RDKit          3D

 14 15  0  0  0  0  0  0  0  0999 V2000
    1.2275   -0.2065   -0.5810 C   0  0  0  0  0  0  0  0  0  0  0  0
    1.1858    0.3812    0.7694 N   0  0  0  0  0  0  0  0  0  0  0  0
   -0.0935   -0.0353    1.3702 C   0  0  0  0  0  0  0  0  0  0  0  0
   -1.0529   -0.2234    0.2022 C   0  0  1  0  0  0  0  0  0  0  0  0
   -0.9879    0.9002   -0.7487 N   0  0  0  0  0  0  0  0  0  0  0  0
   -0.2259   -0.3310   -1.0195 C   0  0  1  0  0  0  0  0  0  0  0  0
    1.6816   -1.2058   -0.5444 H   0  0  0  0  0  0  0  0  0  0  0  0
    1.8301    0.4232   -1.2437 H   0  0  0  0  0  0  0  0  0  0  0  0
    1.1536    1.3887    0.6594 H   0  0  0  0  0  0  0  0  0  0  0  0
    0.0293   -0.9917    1.8959 H   0  0  0  0  0  0  0  0  0  0  0  0
   -0.4285    0.7158    2.0929 H   0  0  0  0  0  0  0  0  0  0  0  0
   -1.9839   -0.7721    0.3241 H   0  0  0  0  0  0  0  0  0  0  0  0
   -1.8289    0.9213   -1.3192 H   0  0  0  0  0  0  0  0  0  0  0  0
   -0.5065   -0.9646   -1.8576 H   0  0  0  0  0  0  0  0  0  0  0  0
  2  1  1  0
  3  2  1  0
  4  3  1  0
  5  4  1  0
  6  5  1  0
  6  4  1  0
  6  1  1  0
  7  1  1  0
  8  1  1  0
  9  2  1  0
 10  3  1  0
 11  3  1  0
  4 12  1  1
 13  5  1  0
  6 14  1  6
M  END
