
     RDKit          3D

 15 16  0  0  0  0  0  0  0  0999 V2000
   -1.0253    0.6373    0.8672 C   0  0  0  0  0  0  0  0  0  0  0  0
   -2.0067   -0.0652   -0.0020 N   0  0  0  0  0  0  0  0  0  0  0  0
   -0.9196   -0.8308   -0.6657 C   0  0  0  0  0  0  0  0  0  0  0  0
    0.1354   -0.1303    0.2117 C   0  0  0  0  0  0  0  0  0  0  0  0
    1.3825    0.5499   -0.3496 C   0  0  0  0  0  0  0  0  0  0  0  0
    2.1898   -0.3000    0.5676 N   0  0  0  0  0  0  0  0  0  0  0  0
    0.9674   -0.9455    1.0565 O   0  0  0  0  0  0  0  0  0  0  0  0
   -0.9785    1.7269    0.7416 H   0  0  0  0  0  0  0  0  0  0  0  0
   -1.1530    0.4002    1.9288 H   0  0  0  0  0  0  0  0  0  0  0  0
   -2.5037    0.5545   -0.6308 H   0  0  0  0  0  0  0  0  0  0  0  0
   -0.9879   -1.9090   -0.4826 H   0  0  0  0  0  0  0  0  0  0  0  0
   -0.8065   -0.6522   -1.7434 H   0  0  0  0  0  0  0  0  0  0  0  0
    1.4818    1.6145   -0.1173 H   0  0  0  0  0  0  0  0  0  0  0  0
    1.5641    0.3830   -1.4174 H   0  0  0  0  0  0  0  0  0  0  0  0
    2.6603   -1.0331    0.0357 H   0  0  0  0  0  0  0  0  0  0  0  0
  2  1  1  0
  3  2  1  0
  4  3  1  0
  4  1  1  0
  5  4  1  0
  6  5  1  0
  7  6  1  0
  7  4  1  0
  8  1  1  0
  9  1  1  0
 10  2  1  0
 11  3  1  0
 12  3  1  0
 13  5  1  0
 14  5  1  0
 15  6  1  0
M  END
