
     RDKit          3D

 13 14  0  0  0  0  0  0  0  0999 V2000
    1.4921   -0.2102    0.4473 C   0  0  0  0  0  0  0  0  0  0  0  0
    1.2298   -0.1623   -1.0045 N   0  0  0  0  0  0  0  0  0  0  0  0
    0.1217   -0.0790   -0.0791 C   0  0  0  0  0  0  0  0  0  0  0  0
   -0.8852    1.0515    0.1050 C   0  0  0  0  0  0  0  0  0  0  0  0
   -1.9606    0.0921    0.1955 O   0  0  0  0  0  0  0  0  0  0  0  0
   -1.0688   -1.0255   -0.0466 C   0  0  0  0  0  0  0  0  0  0  0  0
    1.9355    0.6617    0.9274 H   0  0  0  0  0  0  0  0  0  0  0  0
    1.8479   -1.1705    0.8143 H   0  0  0  0  0  0  0  0  0  0  0  0
    1.4572    0.7510   -1.3906 H   0  0  0  0  0  0  0  0  0  0  0  0
   -1.0033    1.7138   -0.7637 H   0  0  0  0  0  0  0  0  0  0  0  0
   -0.7905    1.6472    1.0213 H   0  0  0  0  0  0  0  0  0  0  0  0
   -1.2796   -1.5199   -1.0021 H   0  0  0  0  0  0  0  0  0  0  0  0
   -1.0963   -1.7499    0.7758 H   0  0  0  0  0  0  0  0  0  0  0  0
  2  1  1  0
  3  2  1  0
  3  1  1  0
  4  3  1  0
  5  4  1  0
  6  5  1  0
  6  3  1  0
  7  1  1  0
  8  1  1  0
  9  2  1  0
 10  4  1  0
 11  4  1  0
 12  6  1  0
 13  6  1  0
M  END
