
     RDKit          3D

 20 21  0  0  0  0  0  0  0  0999 V2000
   -1.4720   -0.9699   -0.2406 C   0  0  0  0  0  0  0  0  0  0  0  0
   -1.8414    0.2365    0.5067 N   0  0  0  0  0  0  0  0  0  0  0  0
   -1.1814    1.3090   -0.2446 C   0  0  0  0  0  0  0  0  0  0  0  0
    0.1905    0.7637   -0.7154 C   0  0  1  0  0  0  0  0  0  0  0  0
    1.3238    0.9958    0.3012 C   0  0  0  0  0  0  0  0  0  0  0  0
    1.2010   -0.1536    1.2032 N   0  0  0  0  0  0  0  0  0  0  0  0
    1.0316   -1.2969    0.3012 C   0  0  0  0  0  0  0  0  0  0  0  0
   -0.0079   -0.7878   -0.7143 C   0  0  1  0  0  0  0  0  0  0  0  0
   -2.1366   -1.0546   -1.1109 H   0  0  0  0  0  0  0  0  0  0  0  0
   -1.6136   -1.8642    0.3752 H   0  0  0  0  0  0  0  0  0  0  0  0
   -1.3919    0.1806    1.4177 H   0  0  0  0  0  0  0  0  0  0  0  0
   -1.0949    2.2129    0.3674 H   0  0  0  0  0  0  0  0  0  0  0  0
   -1.8032    1.5537   -1.1162 H   0  0  0  0  0  0  0  0  0  0  0  0
    0.4611    1.1606   -1.6990 H   0  0  0  0  0  0  0  0  0  0  0  0
    2.2974    1.0127   -0.2219 H   0  0  0  0  0  0  0  0  0  0  0  0
    1.2157    1.9377    0.8508 H   0  0  0  0  0  0  0  0  0  0  0  0
    2.0082   -0.2565    1.8094 H   0  0  0  0  0  0  0  0  0  0  0  0
    0.6911   -2.1821    0.8503 H   0  0  0  0  0  0  0  0  0  0  0  0
    1.9697   -1.5568   -0.2224 H   0  0  0  0  0  0  0  0  0  0  0  0
    0.1525   -1.2408   -1.6978 H   0  0  0  0  0  0  0  0  0  0  0  0
  2  1  1  0
  3  2  1  0
  4  3  1  0
  5  4  1  0
  6  5  1  0
  7  6  1  0
  8  7  1  0
  8  4  1  0
  8  1  1  0
  9  1  1  0
 10  1  1  0
 11  2  1  0
 12  3  1  0
 13  3  1  0
  4 14  1  6
 15  5  1  0
 16  5  1  0
 17  6  1  0
 18  7  1  0
 19  7  1  0
  8 20  1  6
M  END
