
     RDKit          3D

 14 15  0  0  0  0  0  0  0  0999 V2000
   -0.6111    1.0686   -0.6287 C   0  0  0  0  0  0  0  0  0  0  0  0
   -1.7811    0.2296   -0.2513 N   0  0  0  0  0  0  0  0  0  0  0  0
   -0.9216   -0.7173    0.5029 C   0  0  0  0  0  0  0  0  0  0  0  0
    0.3049   -0.0375   -0.1105 C   0  0  0  0  0  0  0  0  0  0  0  0
    1.7012   -0.0221    0.3623 C   0  0  0  0  0  0  0  0  0  0  0  0
    1.3353   -0.6679   -0.9126 N   0  0  0  0  0  0  0  0  0  0  0  0
   -0.5397    1.2757   -1.7014 H   0  0  0  0  0  0  0  0  0  0  0  0
   -0.5201    2.0053   -0.0611 H   0  0  0  0  0  0  0  0  0  0  0  0
   -2.4787    0.7033    0.3109 H   0  0  0  0  0  0  0  0  0  0  0  0
   -1.0809   -1.7694    0.2336 H   0  0  0  0  0  0  0  0  0  0  0  0
   -0.9713   -0.6125    1.5962 H   0  0  0  0  0  0  0  0  0  0  0  0
    2.3056    0.8770    0.2599 H   0  0  0  0  0  0  0  0  0  0  0  0
    1.9541   -0.6530    1.2143 H   0  0  0  0  0  0  0  0  0  0  0  0
    1.3034   -1.6799   -0.8144 H   0  0  0  0  0  0  0  0  0  0  0  0
  2  1  1  0
  3  2  1  0
  4  3  1  0
  4  1  1  0
  5  4  1  0
  6  5  1  0
  6  4  1  0
  7  1  1  0
  8  1  1  0
  9  2  1  0
 10  3  1  0
 11  3  1  0
 12  5  1  0
 13  5  1  0
 14  6  1  0
M  END
