
     RDKit          3D

 17 18  0  0  0  0  0  0  0  0999 V2000
   -1.1790   -0.6601    0.7699 C   0  0  0  0  0  0  0  0  0  0  0  0
   -2.1018    0.1209   -0.0861 N   0  0  0  0  0  0  0  0  0  0  0  0
   -1.0198    0.3334   -1.0768 C   0  0  0  0  0  0  0  0  0  0  0  0
    0.0043   -0.0381    0.0128 C   0  0  0  0  0  0  0  0  0  0  0  0
    0.8640    1.0876    0.6191 C   0  0  0  0  0  0  0  0  0  0  0  0
    2.0275    0.5597   -0.1326 N   0  0  0  0  0  0  0  0  0  0  0  0
    1.3320   -0.7348   -0.3204 C   0  0  0  0  0  0  0  0  0  0  0  0
   -1.2314   -1.7493    0.6134 H   0  0  0  0  0  0  0  0  0  0  0  0
   -1.2575   -0.4452    1.8426 H   0  0  0  0  0  0  0  0  0  0  0  0
   -2.9158   -0.3800   -0.4262 H   0  0  0  0  0  0  0  0  0  0  0  0
   -1.0154   -0.3975   -1.9002 H   0  0  0  0  0  0  0  0  0  0  0  0
   -0.9684    1.3470   -1.4903 H   0  0  0  0  0  0  0  0  0  0  0  0
    0.9517    0.9846    1.7117 H   0  0  0  0  0  0  0  0  0  0  0  0
    0.5876    2.1189    0.3720 H   0  0  0  0  0  0  0  0  0  0  0  0
    2.9003    0.5186    0.3827 H   0  0  0  0  0  0  0  0  0  0  0  0
    1.4335   -1.1676   -1.3231 H   0  0  0  0  0  0  0  0  0  0  0  0
    1.5882   -1.4981    0.4315 H   0  0  0  0  0  0  0  0  0  0  0  0
  2  1  1  0
  3  2  1  0
  4  3  1  0
  4  1  1  0
  5  4  1  0
  6  5  1  0
  7  6  1  0
  7  4  1  0
  8  1  1  0
  9  1  1  0
 10  2  1  0
 11  3  1  0
 12  3  1  0
 13  5  1  0
 14  5  1  0
 15  6  1  0
 16  7  1  0
 17  7  1  0
M  END
