
     RDKit          3D

 16 17  0  0  0  0  0  0  0  0999 V2000
   -0.9577    0.5629   -0.8787 C   0  0  0  0  0  0  0  0  0  0  0  0
   -1.8005   -0.5698   -0.4333 N   0  0  0  0  0  0  0  0  0  0  0  0
   -0.9248   -0.7729    0.7431 C   0  0  0  0  0  0  0  0  0  0  0  0
    0.1703    0.0386    0.0275 C   0  0  0  0  0  0  0  0  0  0  0  0
    1.1965    0.9239    0.7394 C   0  0  0  0  0  0  0  0  0  0  0  0
    2.3006    0.2086    0.1450 O   0  0  0  0  0  0  0  0  0  0  0  0
    1.3976   -0.6624   -0.5738 C   0  0  0  0  0  0  0  0  0  0  0  0
   -1.3158    1.5499   -0.5459 H   0  0  0  0  0  0  0  0  0  0  0  0
   -0.7622    0.5931   -1.9571 H   0  0  0  0  0  0  0  0  0  0  0  0
   -2.7690   -0.3471   -0.2301 H   0  0  0  0  0  0  0  0  0  0  0  0
   -0.7032   -1.8211    0.9755 H   0  0  0  0  0  0  0  0  0  0  0  0
   -1.2708   -0.2631    1.6561 H   0  0  0  0  0  0  0  0  0  0  0  0
    1.1900    1.9812    0.4427 H   0  0  0  0  0  0  0  0  0  0  0  0
    1.2049    0.8487    1.8348 H   0  0  0  0  0  0  0  0  0  0  0  0
    1.5130   -0.5577   -1.6600 H   0  0  0  0  0  0  0  0  0  0  0  0
    1.5308   -1.7125   -0.2854 H   0  0  0  0  0  0  0  0  0  0  0  0
  2  1  1  0
  3  2  1  0
  4  3  1  0
  4  1  1  0
  5  4  1  0
  6  5  1  0
  7  6  1  0
  7  4  1  0
  8  1  1  0
  9  1  1  0
 10  2  1  0
 11  3  1  0
 12  3  1  0
 13  5  1  0
 14  5  1  0
 15  7  1  0
 16  7  1  0
M  END
