
     RDKit          3D

 14 15  0  0  0  0  0  0  0  0999 V2000
    2.1052    0.2413   -0.1741 C   0  0  0  0  0  0  0  0  0  0  0  0
    2.4373   -1.0148   -0.3868 N   0  0  0  0  0  0  0  0  0  0  0  0
    1.2388   -1.7394   -0.4119 O   0  0  0  0  0  0  0  0  0  0  0  0
    0.2449   -0.8743   -0.2017 C   0  0  0  0  0  0  0  0  0  0  0  0
    0.6953    0.3882   -0.0447 C   0  0  0  0  0  0  0  0  0  0  0  0
   -0.4697    1.3188    0.1635 C   0  0  0  0  0  0  0  0  0  0  0  0
   -1.6390    0.3886    0.2353 N   0  0  0  0  0  0  0  0  0  0  0  0
   -1.2463   -0.9970   -0.1369 C   0  0  0  0  0  0  0  0  0  0  0  0
    2.9000    0.9759   -0.1238 H   0  0  0  0  0  0  0  0  0  0  0  0
   -0.5927    2.0161   -0.6744 H   0  0  0  0  0  0  0  0  0  0  0  0
   -0.3967    1.9106    1.0825 H   0  0  0  0  0  0  0  0  0  0  0  0
   -2.0189    0.3925    1.1726 H   0  0  0  0  0  0  0  0  0  0  0  0
   -1.5874   -1.7242    0.6082 H   0  0  0  0  0  0  0  0  0  0  0  0
   -1.6710   -1.2824   -1.1077 H   0  0  0  0  0  0  0  0  0  0  0  0
  2  1  2  0
  3  2  1  0
  4  3  1  0
  5  4  2  0
  5  1  1  0
  6  5  1  0
  7  6  1  0
  8  7  1  0
  8  4  1  0
  9  1  1  0
 10  6  1  0
 11  6  1  0
 12  7  1  0
 13  8  1  0
 14  8  1  0
M  END
