
     RDKit          3D

 12 13  0  0  0  0  0  0  0  0999 V2000
   -1.0494    0.8639    0.0673 C   0  0  0  0  0  0  0  0  0  0  0  0
   -1.7986   -0.3522   -0.1690 O   0  0  0  0  0  0  0  0  0  0  0  0
   -0.6533   -1.1925    0.1108 C   0  0  0  0  0  0  0  0  0  0  0  0
    0.2191    0.0456    0.2605 C   0  0  0  0  0  0  0  0  0  0  0  0
    1.6150    0.3077   -0.0715 C   0  0  0  0  0  0  0  0  0  0  0  0
    1.1570    0.2478    1.2917 O   0  0  0  0  0  0  0  0  0  0  0  0
   -1.0801    1.5368   -0.7972 H   0  0  0  0  0  0  0  0  0  0  0  0
   -1.3826    1.3855    0.9727 H   0  0  0  0  0  0  0  0  0  0  0  0
   -0.7761   -1.7633    1.0393 H   0  0  0  0  0  0  0  0  0  0  0  0
   -0.4246   -1.8635   -0.7250 H   0  0  0  0  0  0  0  0  0  0  0  0
    1.9117    1.2993   -0.4134 H   0  0  0  0  0  0  0  0  0  0  0  0
    2.2619   -0.5151   -0.3755 H   0  0  0  0  0  0  0  0  0  0  0  0
  2  1  1  0
  3  2  1  0
  4  3  1  0
  4  1  1  0
  5  4  1  0
  6  5  1  0
  6  4  1  0
  7  1  1  0
  8  1  1  0
  9  3  1  0
 10  3  1  0
 11  5  1  0
 12  5  1  0
M  END
