
     RDKit          3D

 23 24  0  0  0  0  0  0  0  0999 V2000
    1.6082    1.3418    0.5100 C   0  0  0  0  0  0  0  0  0  0  0  0
    0.5501    0.4219   -0.0978 C   0  0  2  0  0  0  0  0  0  0  0  0
   -0.5144    1.2131   -0.8904 C   0  0  0  0  0  0  0  0  0  0  0  0
   -1.7285    0.4074   -0.7391 N   0  0  0  0  0  0  0  0  0  0  0  0
   -1.7464    0.0668    0.6872 C   0  0  0  0  0  0  0  0  0  0  0  0
   -0.2974   -0.3762    0.9513 C   0  0  1  0  0  0  0  0  0  0  0  0
   -0.0370   -1.8597    0.5939 C   0  0  0  0  0  0  0  0  0  0  0  0
    0.3583   -1.9022   -0.8180 N   0  0  0  0  0  0  0  0  0  0  0  0
    1.1856   -0.7032   -0.9622 C   0  0  0  0  0  0  0  0  0  0  0  0
    2.3258    0.7677    1.1076 H   0  0  0  0  0  0  0  0  0  0  0  0
    1.1527    2.0978    1.1601 H   0  0  0  0  0  0  0  0  0  0  0  0
    2.1696    1.8667   -0.2735 H   0  0  0  0  0  0  0  0  0  0  0  0
   -0.2502    1.3345   -1.9472 H   0  0  0  0  0  0  0  0  0  0  0  0
   -0.6275    2.2205   -0.4483 H   0  0  0  0  0  0  0  0  0  0  0  0
   -2.5625    0.9082   -1.0281 H   0  0  0  0  0  0  0  0  0  0  0  0
   -1.9926    0.9389    1.3203 H   0  0  0  0  0  0  0  0  0  0  0  0
   -2.4788   -0.7218    0.8941 H   0  0  0  0  0  0  0  0  0  0  0  0
   -0.0002   -0.1546    1.9822 H   0  0  0  0  0  0  0  0  0  0  0  0
   -0.9053   -2.5028    0.7722 H   0  0  0  0  0  0  0  0  0  0  0  0
    0.7950   -2.2481    1.1968 H   0  0  0  0  0  0  0  0  0  0  0  0
   -0.4819   -1.7641   -1.3745 H   0  0  0  0  0  0  0  0  0  0  0  0
    1.2861   -0.4233   -2.0162 H   0  0  0  0  0  0  0  0  0  0  0  0
    2.1913   -0.9294   -0.5805 H   0  0  0  0  0  0  0  0  0  0  0  0
  2  1  1  1
  3  2  1  0
  4  3  1  0
  5  4  1  0
  6  5  1  0
  6  2  1  0
  7  6  1  0
  8  7  1  0
  9  8  1  0
  9  2  1  0
 10  1  1  0
 11  1  1  0
 12  1  1  0
 13  3  1  0
 14  3  1  0
 15  4  1  0
 16  5  1  0
 17  5  1  0
  6 18  1  1
 19  7  1  0
 20  7  1  0
 21  8  1  0
 22  9  1  0
 23  9  1  0
M  END
