
     RDKit          3D

 26 27  0  0  0  0  0  0  0  0999 V2000
    1.5486    0.1126    1.3888 C   0  0  0  0  0  0  0  0  0  0  0  0
    0.7953    0.0672    0.0588 C   0  0  2  0  0  0  0  0  0  0  0  0
    0.9441    1.4111   -0.6903 C   0  0  0  0  0  0  0  0  0  0  0  0
   -0.2745    2.1336   -0.3249 N   0  0  0  0  0  0  0  0  0  0  0  0
   -1.3300    1.1419   -0.5338 C   0  0  0  0  0  0  0  0  0  0  0  0
   -0.7735   -0.1179    0.1681 C   0  0  2  0  0  0  0  0  0  0  0  0
   -1.3289   -0.2235    1.5889 C   0  0  0  0  0  0  0  0  0  0  0  0
   -1.0458   -1.3934   -0.6495 C   0  0  0  0  0  0  0  0  0  0  0  0
    0.0539   -1.4169   -1.6129 N   0  0  0  0  0  0  0  0  0  0  0  0
    1.2409   -1.1224   -0.8112 C   0  0  0  0  0  0  0  0  0  0  0  0
    1.3725   -0.7850    1.9908 H   0  0  0  0  0  0  0  0  0  0  0  0
    2.6277    0.1802    1.2031 H   0  0  0  0  0  0  0  0  0  0  0  0
    1.2517    0.9885    1.9748 H   0  0  0  0  0  0  0  0  0  0  0  0
    1.8374    1.9643   -0.3781 H   0  0  0  0  0  0  0  0  0  0  0  0
    1.0058    1.2200   -1.7756 H   0  0  0  0  0  0  0  0  0  0  0  0
   -0.4117    2.9648   -0.8908 H   0  0  0  0  0  0  0  0  0  0  0  0
   -2.2771    1.4773   -0.0956 H   0  0  0  0  0  0  0  0  0  0  0  0
   -1.4902    0.9232   -1.6036 H   0  0  0  0  0  0  0  0  0  0  0  0
   -1.1655    0.7082    2.1399 H   0  0  0  0  0  0  0  0  0  0  0  0
   -0.8704   -1.0448    2.1498 H   0  0  0  0  0  0  0  0  0  0  0  0
   -2.4094   -0.4098    1.5523 H   0  0  0  0  0  0  0  0  0  0  0  0
   -2.0173   -1.3659   -1.1577 H   0  0  0  0  0  0  0  0  0  0  0  0
   -1.0350   -2.2704    0.0240 H   0  0  0  0  0  0  0  0  0  0  0  0
    0.1239   -2.2988   -2.1084 H   0  0  0  0  0  0  0  0  0  0  0  0
    1.5290   -1.9672   -0.1582 H   0  0  0  0  0  0  0  0  0  0  0  0
    2.0988   -0.8769   -1.4488 H   0  0  0  0  0  0  0  0  0  0  0  0
  2  1  1  1
  3  2  1  0
  4  3  1  0
  5  4  1  0
  6  5  1  0
  6  2  1  0
  6  7  1  1
  8  6  1  0
  9  8  1  0
 10  9  1  0
 10  2  1  0
 11  1  1  0
 12  1  1  0
 13  1  1  0
 14  3  1  0
 15  3  1  0
 16  4  1  0
 17  5  1  0
 18  5  1  0
 19  7  1  0
 20  7  1  0
 21  7  1  0
 22  8  1  0
 23  8  1  0
 24  9  1  0
 25 10  1  0
 26 10  1  0
M  END
