
     RDKit          3D

 22 22  0  0  0  0  0  0  0  0999 V2000
    2.8292   -0.9775   -1.4027 F   0  0  0  0  0  0  0  0  0  0  0  0
    2.4280    0.0706   -0.6472 C   0  0  0  0  0  0  0  0  0  0  0  0
    2.7715    1.1968   -1.3272 F   0  0  0  0  0  0  0  0  0  0  0  0
    3.1649    0.0574    0.4830 F   0  0  0  0  0  0  0  0  0  0  0  0
    0.9281    0.0174   -0.3826 C   0  0  1  0  0  0  0  0  0  0  0  0
    0.5877   -1.2420    0.4329 C   0  0  0  0  0  0  0  0  0  0  0  0
   -0.9004   -1.5909    0.4292 C   0  0  0  0  0  0  0  0  0  0  0  0
   -1.7474   -0.4998    0.9059 N   0  0  0  0  0  0  0  0  0  0  0  0
   -1.8729    0.5897   -0.0581 C   0  0  0  0  0  0  0  0  0  0  0  0
   -0.8364    1.7018    0.1299 C   0  0  0  0  0  0  0  0  0  0  0  0
    0.5338    1.2218    0.3371 N   0  0  0  0  0  0  0  0  0  0  0  0
    0.4839   -0.0518   -1.3908 H   0  0  0  0  0  0  0  0  0  0  0  0
    0.9219   -1.0629    1.4590 H   0  0  0  0  0  0  0  0  0  0  0  0
    1.1356   -2.1018    0.0289 H   0  0  0  0  0  0  0  0  0  0  0  0
   -1.0523   -2.4527    1.0883 H   0  0  0  0  0  0  0  0  0  0  0  0
   -1.1888   -1.9054   -0.5931 H   0  0  0  0  0  0  0  0  0  0  0  0
   -2.6644   -0.8647    1.1320 H   0  0  0  0  0  0  0  0  0  0  0  0
   -2.8595    1.0538    0.0518 H   0  0  0  0  0  0  0  0  0  0  0  0
   -1.8244    0.2063   -1.0936 H   0  0  0  0  0  0  0  0  0  0  0  0
   -1.1058    2.2925    1.0130 H   0  0  0  0  0  0  0  0  0  0  0  0
   -0.9130    2.3611   -0.7525 H   0  0  0  0  0  0  0  0  0  0  0  0
    1.1806    1.9801    0.1568 H   0  0  0  0  0  0  0  0  0  0  0  0
  2  1  1  0
  3  2  1  0
  4  2  1  0
  5  2  1  0
  6  5  1  0
  7  6  1  0
  8  7  1  0
  9  8  1  0
 10  9  1  0
 11 10  1  0
 11  5  1  0
  5 12  1  6
 13  6  1  0
 14  6  1  0
 15  7  1  0
 16  7  1  0
 17  8  1  0
 18  9  1  0
 19  9  1  0
 20 10  1  0
 21 10  1  0
 22 11  1  0
M  END
