
     RDKit          3D

 19 19  0  0  0  0  0  0  0  0999 V2000
    2.7083   -0.1748    0.8234 F   0  0  0  0  0  0  0  0  0  0  0  0
    1.6070   -0.1724   -0.0187 C   0  0  0  0  0  0  0  0  0  0  0  0
    2.0744   -0.5785   -1.2517 F   0  0  0  0  0  0  0  0  0  0  0  0
    0.6278   -1.2261    0.4902 C   0  0  0  0  0  0  0  0  0  0  0  0
   -0.5132   -1.3323   -0.3997 N   0  0  0  0  0  0  0  0  0  0  0  0
   -1.6797   -0.5339   -0.0505 C   0  0  0  0  0  0  0  0  0  0  0  0
   -1.3178    0.9586    0.1289 C   0  0  0  0  0  0  0  0  0  0  0  0
   -0.2204    1.4560   -0.6937 N   0  0  0  0  0  0  0  0  0  0  0  0
    1.1024    1.2669   -0.1258 C   0  0  0  0  0  0  0  0  0  0  0  0
    1.1780   -2.1719    0.5101 H   0  0  0  0  0  0  0  0  0  0  0  0
    0.3549   -0.9780    1.5287 H   0  0  0  0  0  0  0  0  0  0  0  0
   -0.7613   -2.2949   -0.5798 H   0  0  0  0  0  0  0  0  0  0  0  0
   -2.3999   -0.6427   -0.8703 H   0  0  0  0  0  0  0  0  0  0  0  0
   -2.1799   -0.8773    0.8738 H   0  0  0  0  0  0  0  0  0  0  0  0
   -2.2173    1.5549   -0.0688 H   0  0  0  0  0  0  0  0  0  0  0  0
   -1.0480    1.1533    1.1739 H   0  0  0  0  0  0  0  0  0  0  0  0
   -0.2655    1.0826   -1.6358 H   0  0  0  0  0  0  0  0  0  0  0  0
    1.1113    1.6908    0.8849 H   0  0  0  0  0  0  0  0  0  0  0  0
    1.8388    1.8196   -0.7192 H   0  0  0  0  0  0  0  0  0  0  0  0
  2  1  1  0
  3  2  1  0
  4  2  1  0
  5  4  1  0
  6  5  1  0
  7  6  1  0
  8  7  1  0
  9  8  1  0
  9  2  1  0
 10  4  1  0
 11  4  1  0
 12  5  1  0
 13  6  1  0
 14  6  1  0
 15  7  1  0
 16  7  1  0
 17  8  1  0
 18  9  1  0
 19  9  1  0
M  END
