
     RDKit          3D

 23 24  0  0  0  0  0  0  0  0999 V2000
   -3.5651    0.5130   -0.6181 O   0  0  0  0  0  0  0  0  0  0  0  0
   -2.2163   -0.0213   -0.8211 S   0  0  0  0  0  6  0  0  0  0  0  0
   -1.8870   -0.7485   -2.0571 O   0  0  0  0  0  0  0  0  0  0  0  0
   -0.9681    1.2654   -0.5698 C   0  0  0  0  0  0  0  0  0  0  0  0
   -0.1138    0.8207    0.6469 C   0  0  2  0  0  0  0  0  0  0  0  0
    1.2890    1.2032    0.6109 N   0  0  0  0  0  0  0  0  0  0  0  0
    2.0693    0.5318   -0.4292 C   0  0  0  0  0  0  0  0  0  0  0  0
    1.9645   -0.9794   -0.2202 C   0  0  0  0  0  0  0  0  0  0  0  0
    0.5800   -1.4487   -0.2021 N   0  0  0  0  0  0  0  0  0  0  0  0
   -0.2317   -0.7220    0.7662 C   0  0  2  0  0  0  0  0  0  0  0  0
   -1.7111   -1.0437    0.5772 C   0  0  0  0  0  0  0  0  0  0  0  0
   -1.4894    2.2102   -0.4042 H   0  0  0  0  0  0  0  0  0  0  0  0
   -0.3900    1.3182   -1.4945 H   0  0  0  0  0  0  0  0  0  0  0  0
   -0.5525    1.2592    1.5514 H   0  0  0  0  0  0  0  0  0  0  0  0
    1.3954    2.2102    0.5707 H   0  0  0  0  0  0  0  0  0  0  0  0
    1.7326    0.7772   -1.4528 H   0  0  0  0  0  0  0  0  0  0  0  0
    3.1110    0.8580   -0.3375 H   0  0  0  0  0  0  0  0  0  0  0  0
    2.4271   -1.2398    0.7406 H   0  0  0  0  0  0  0  0  0  0  0  0
    2.5028   -1.5147   -1.0091 H   0  0  0  0  0  0  0  0  0  0  0  0
    0.1671   -1.4077   -1.1308 H   0  0  0  0  0  0  0  0  0  0  0  0
    0.0964   -1.0138    1.7712 H   0  0  0  0  0  0  0  0  0  0  0  0
   -2.3112   -0.7378    1.4379 H   0  0  0  0  0  0  0  0  0  0  0  0
   -1.8991   -2.0894    0.3246 H   0  0  0  0  0  0  0  0  0  0  0  0
  2  1  2  0
  3  2  2  0
  4  2  1  0
  5  4  1  0
  6  5  1  0
  7  6  1  0
  8  7  1  0
  9  8  1  0
 10  9  1  0
 10  5  1  0
 11 10  1  0
 11  2  1  0
 12  4  1  0
 13  4  1  0
  5 14  1  1
 15  6  1  0
 16  7  1  0
 17  7  1  0
 18  8  1  0
 19  8  1  0
 20  9  1  0
 10 21  1  1
 22 11  1  0
 23 11  1  0
M  END
