
     RDKit          3D

 15 16  0  0  0  0  0  0  0  0999 V2000
    1.6275    0.8079   -0.1584 C   0  0  0  0  0  0  0  0  0  0  0  0
    2.2627   -0.3634    0.0583 N   0  0  0  0  0  0  0  0  0  0  0  0
    1.4002   -1.3666   -0.0486 N   0  0  0  0  0  0  0  0  0  0  0  0
    0.2337   -0.8224   -0.4404 C   0  0  0  0  0  0  0  0  0  0  0  0
    0.3299    0.5085   -0.5055 C   0  0  0  0  0  0  0  0  0  0  0  0
   -0.9518    1.1472   -0.1576 C   0  0  0  0  0  0  0  0  0  0  0  0
   -1.9036    0.0271    0.0218 N   0  0  0  0  0  0  0  0  0  0  0  0
   -1.1313   -1.2336   -0.0659 C   0  0  0  0  0  0  0  0  0  0  0  0
    2.0341    1.7834    0.0734 H   0  0  0  0  0  0  0  0  0  0  0  0
    3.2463   -0.4719    0.3905 H   0  0  0  0  0  0  0  0  0  0  0  0
   -1.2891    1.8037   -0.9865 H   0  0  0  0  0  0  0  0  0  0  0  0
   -0.8477    1.7371    0.7808 H   0  0  0  0  0  0  0  0  0  0  0  0
   -2.3295    0.0961    0.9762 H   0  0  0  0  0  0  0  0  0  0  0  0
   -1.1194   -1.7637    0.9128 H   0  0  0  0  0  0  0  0  0  0  0  0
   -1.5620   -1.8893   -0.8510 H   0  0  0  0  0  0  0  0  0  0  0  0
  1  2  1  0
  2  3  1  0
  3  4  2  0
  4  5  1  0
  5  6  1  0
  6  7  1  0
  7  8  1  0
  5  1  2  0
  8  4  1  0
  1  9  1  0
  2 10  1  0
  6 11  1  0
  6 12  1  0
  7 13  1  0
  8 14  1  0
  8 15  1  0
M  END
