
     RDKit          3D

 20 21  0  0  0  0  0  0  0  0999 V2000
   -1.7951    0.1951    0.1831 C   0  0  0  0  0  0  0  0  0  0  0  0
   -1.1496   -1.1234   -0.2636 C   0  0  0  0  0  0  0  0  0  0  0  0
    0.3567   -1.0246   -0.6408 C   0  0  2  0  0  0  0  0  0  0  0  0
    1.2583   -1.5390    0.4018 N   0  0  0  0  0  0  0  0  0  0  0  0
    1.9414   -0.2444    0.4157 C   0  0  0  0  0  0  0  0  0  0  0  0
    1.0177    0.3563   -0.6344 C   0  0  2  0  0  0  0  0  0  0  0  0
    0.1680    1.5219   -0.1068 C   0  0  0  0  0  0  0  0  0  0  0  0
   -0.8262    1.0559    0.8627 N   0  0  0  0  0  0  0  0  0  0  0  0
   -2.2380    0.7190   -0.6952 H   0  0  0  0  0  0  0  0  0  0  0  0
   -2.6327   -0.0327    0.8782 H   0  0  0  0  0  0  0  0  0  0  0  0
   -1.3016   -1.8922    0.5246 H   0  0  0  0  0  0  0  0  0  0  0  0
   -1.7095   -1.4929   -1.1502 H   0  0  0  0  0  0  0  0  0  0  0  0
    0.5579   -1.5562   -1.5982 H   0  0  0  0  0  0  0  0  0  0  0  0
    0.7591   -1.6402    1.3171 H   0  0  0  0  0  0  0  0  0  0  0  0
    1.8903    0.2519    1.4130 H   0  0  0  0  0  0  0  0  0  0  0  0
    2.9849   -0.3480    0.0459 H   0  0  0  0  0  0  0  0  0  0  0  0
    1.5520    0.5920   -1.5811 H   0  0  0  0  0  0  0  0  0  0  0  0
    0.8345    2.2690    0.3769 H   0  0  0  0  0  0  0  0  0  0  0  0
   -0.3265    2.0358   -0.9621 H   0  0  0  0  0  0  0  0  0  0  0  0
   -1.3417    1.8967    1.2134 H   0  0  0  0  0  0  0  0  0  0  0  0
  1  2  1  0
  2  3  1  0
  3  4  1  0
  4  5  1  0
  5  6  1  0
  6  7  1  0
  7  8  1  0
  8  1  1  0
  6  3  1  0
  1  9  1  0
  1 10  1  0
  2 11  1  0
  2 12  1  0
  3 13  1  6
  4 14  1  0
  5 15  1  0
  5 16  1  0
  6 17  1  6
  7 18  1  0
  7 19  1  0
  8 20  1  0
M  END
