
     RDKit          3D

 20 21  0  0  0  0  0  0  0  0999 V2000
    1.6110   -0.2780   -0.5293 C   0  0  0  0  0  0  0  0  0  0  0  0
    0.8407    0.9613   -1.0481 C   0  0  0  0  0  0  0  0  0  0  0  0
   -0.5377    1.0825   -0.3678 C   0  0  1  0  0  0  0  0  0  0  0  0
   -1.3103   -0.1916   -0.6441 C   0  0  0  0  0  0  0  0  0  0  0  0
   -0.5766   -1.1225    0.2847 C   0  0  2  0  0  0  0  0  0  0  0  0
   -0.4302   -0.2607    1.5448 C   0  0  0  0  0  0  0  0  0  0  0  0
   -0.3555    1.1370    1.0899 N   0  0  0  0  0  0  0  0  0  0  0  0
    0.7349   -1.4556   -0.3184 N   0  0  0  0  0  0  0  0  0  0  0  0
    2.1274   -0.0152    0.4208 H   0  0  0  0  0  0  0  0  0  0  0  0
    2.4014   -0.5442   -1.2627 H   0  0  0  0  0  0  0  0  0  0  0  0
    1.4374    1.8781   -0.8514 H   0  0  0  0  0  0  0  0  0  0  0  0
    0.7043    0.8787   -2.1489 H   0  0  0  0  0  0  0  0  0  0  0  0
   -1.0807    1.9777   -0.7454 H   0  0  0  0  0  0  0  0  0  0  0  0
   -2.3740   -0.0796   -0.3353 H   0  0  0  0  0  0  0  0  0  0  0  0
   -1.2618   -0.5175   -1.7073 H   0  0  0  0  0  0  0  0  0  0  0  0
   -1.1606   -2.0489    0.4784 H   0  0  0  0  0  0  0  0  0  0  0  0
    0.4795   -0.5279    2.1234 H   0  0  0  0  0  0  0  0  0  0  0  0
   -1.3164   -0.4095    2.2035 H   0  0  0  0  0  0  0  0  0  0  0  0
   -1.1634    1.6632    1.4998 H   0  0  0  0  0  0  0  0  0  0  0  0
    1.2306   -2.1273    0.3133 H   0  0  0  0  0  0  0  0  0  0  0  0
  1  2  1  0
  2  3  1  0
  3  4  1  0
  4  5  1  0
  5  6  1  0
  6  7  1  0
  5  8  1  0
  8  1  1  0
  7  3  1  0
  1  9  1  0
  1 10  1  0
  2 11  1  0
  2 12  1  0
  3 13  1  6
  4 14  1  0
  4 15  1  0
  5 16  1  1
  6 17  1  0
  6 18  1  0
  7 19  1  0
  8 20  1  0
M  END
