
     RDKit          3D

 23 24  0  0  0  0  0  0  0  0999 V2000
    2.0054    0.6983    1.0759 C   0  0  0  0  0  0  0  0  0  0  0  0
    0.6383    1.3160    0.7086 C   0  0  0  0  0  0  0  0  0  0  0  0
   -0.0051    0.5848   -0.4835 C   0  0  2  0  0  0  0  0  0  0  0  0
   -1.4395    1.0610   -0.7514 C   0  0  0  0  0  0  0  0  0  0  0  0
   -2.3213   -0.1074   -0.7184 N   0  0  0  0  0  0  0  0  0  0  0  0
   -1.6118   -1.1368    0.0332 C   0  0  0  0  0  0  0  0  0  0  0  0
   -0.1300   -0.9177   -0.2281 C   0  0  2  0  0  0  0  0  0  0  0  0
    0.7749   -1.4171    0.9200 C   0  0  0  0  0  0  0  0  0  0  0  0
    2.0874   -0.7617    0.8579 N   0  0  0  0  0  0  0  0  0  0  0  0
    2.2212    0.9131    2.1442 H   0  0  0  0  0  0  0  0  0  0  0  0
    2.7992    1.2020    0.4803 H   0  0  0  0  0  0  0  0  0  0  0  0
   -0.0338    1.2499    1.5936 H   0  0  0  0  0  0  0  0  0  0  0  0
    0.7698    2.3927    0.4652 H   0  0  0  0  0  0  0  0  0  0  0  0
    0.6235    0.7576   -1.3868 H   0  0  0  0  0  0  0  0  0  0  0  0
   -1.7717    1.8148   -0.0007 H   0  0  0  0  0  0  0  0  0  0  0  0
   -1.5027    1.5326   -1.7554 H   0  0  0  0  0  0  0  0  0  0  0  0
   -3.2059    0.1374   -0.2139 H   0  0  0  0  0  0  0  0  0  0  0  0
   -1.9271   -2.1443   -0.3129 H   0  0  0  0  0  0  0  0  0  0  0  0
   -1.8468   -1.0381    1.1181 H   0  0  0  0  0  0  0  0  0  0  0  0
    0.1475   -1.4567   -1.1628 H   0  0  0  0  0  0  0  0  0  0  0  0
    0.9089   -2.5167    0.8305 H   0  0  0  0  0  0  0  0  0  0  0  0
    0.3169   -1.2224    1.9153 H   0  0  0  0  0  0  0  0  0  0  0  0
    2.5029   -0.9412   -0.0871 H   0  0  0  0  0  0  0  0  0  0  0  0
  1  2  1  0
  2  3  1  0
  3  4  1  0
  4  5  1  0
  5  6  1  0
  6  7  1  0
  7  8  1  0
  8  9  1  0
  9  1  1  0
  7  3  1  0
  1 10  1  0
  1 11  1  0
  2 12  1  0
  2 13  1  0
  3 14  1  6
  4 15  1  0
  4 16  1  0
  5 17  1  0
  6 18  1  0
  6 19  1  0
  7 20  1  6
  8 21  1  0
  8 22  1  0
  9 23  1  0
M  END
