
     RDKit          3D

 20 21  0  0  0  0  0  0  0  0999 V2000
   -1.7704   -0.2818    0.1902 C   0  0  0  0  0  0  0  0  0  0  0  0
   -0.8427   -1.0170   -0.8045 C   0  0  0  0  0  0  0  0  0  0  0  0
    0.6554   -0.7181   -0.6240 C   0  0  2  0  0  0  0  0  0  0  0  0
    1.2268   -0.9800    0.7618 C   0  0  0  0  0  0  0  0  0  0  0  0
    1.5233    0.4372    0.9925 N   0  0  0  0  0  0  0  0  0  0  0  0
    0.9753    0.7386   -0.3346 C   0  0  2  0  0  0  0  0  0  0  0  0
   -0.2695    1.6377   -0.2497 C   0  0  0  0  0  0  0  0  0  0  0  0
   -1.3080    1.0567    0.6118 N   0  0  0  0  0  0  0  0  0  0  0  0
   -2.7736   -0.1765   -0.2747 H   0  0  0  0  0  0  0  0  0  0  0  0
   -1.9107   -0.9229    1.0891 H   0  0  0  0  0  0  0  0  0  0  0  0
   -1.0093   -2.1128   -0.7260 H   0  0  0  0  0  0  0  0  0  0  0  0
   -1.1247   -0.7173   -1.8373 H   0  0  0  0  0  0  0  0  0  0  0  0
    1.2896   -1.1443   -1.4323 H   0  0  0  0  0  0  0  0  0  0  0  0
    2.1490   -1.6044    0.7293 H   0  0  0  0  0  0  0  0  0  0  0  0
    0.4840   -1.3560    1.4980 H   0  0  0  0  0  0  0  0  0  0  0  0
    2.5623    0.5685    0.9594 H   0  0  0  0  0  0  0  0  0  0  0  0
    1.7448    1.1534   -1.0265 H   0  0  0  0  0  0  0  0  0  0  0  0
   -0.6809    1.8031   -1.2693 H   0  0  0  0  0  0  0  0  0  0  0  0
    0.0266    2.6300    0.1532 H   0  0  0  0  0  0  0  0  0  0  0  0
   -0.9472    1.0059    1.5935 H   0  0  0  0  0  0  0  0  0  0  0  0
  1  2  1  0
  2  3  1  0
  3  4  1  0
  4  5  1  0
  5  6  1  0
  6  7  1  0
  7  8  1  0
  8  1  1  0
  6  3  1  0
  1  9  1  0
  1 10  1  0
  2 11  1  0
  2 12  1  0
  3 13  1  6
  4 14  1  0
  4 15  1  0
  5 16  1  0
  6 17  1  6
  7 18  1  0
  7 19  1  0
  8 20  1  0
M  END
