
     RDKit          3D

 16 16  0  0  0  0  0  0  0  0999 V2000
   -0.5473    0.9958   -0.4983 C   0  0  0  0  0  0  0  0  0  0  0  0
    0.8599    0.9966    0.0978 C   0  0  0  0  0  0  0  0  0  0  0  0
    1.4783   -0.4150    0.0437 C   0  0  0  0  0  0  0  0  0  0  0  0
    0.4648   -1.4843    0.0569 N   0  0  0  0  0  0  0  0  0  0  0  0
   -0.6296   -1.0975    0.8653 N   0  0  0  0  0  0  0  0  0  0  0  0
   -1.4325   -0.0586    0.1927 C   0  0  0  0  0  0  0  0  0  0  0  0
   -1.0025    2.0043   -0.3923 H   0  0  0  0  0  0  0  0  0  0  0  0
   -0.4773    0.7674   -1.5848 H   0  0  0  0  0  0  0  0  0  0  0  0
    1.5042    1.7150   -0.4536 H   0  0  0  0  0  0  0  0  0  0  0  0
    0.8016    1.3341    1.1563 H   0  0  0  0  0  0  0  0  0  0  0  0
    2.1605   -0.5502    0.9102 H   0  0  0  0  0  0  0  0  0  0  0  0
    2.0943   -0.5100   -0.8778 H   0  0  0  0  0  0  0  0  0  0  0  0
    0.1348   -1.6763   -0.9206 H   0  0  0  0  0  0  0  0  0  0  0  0
   -1.2319   -1.9418    1.0050 H   0  0  0  0  0  0  0  0  0  0  0  0
   -2.1124   -0.5216   -0.5574 H   0  0  0  0  0  0  0  0  0  0  0  0
   -2.0648    0.4420    0.9570 H   0  0  0  0  0  0  0  0  0  0  0  0
  1  2  1  0
  2  3  1  0
  3  4  1  0
  4  5  1  0
  5  6  1  0
  6  1  1  0
  1  7  1  0
  1  8  1  0
  2  9  1  0
  2 10  1  0
  3 11  1  0
  3 12  1  0
  4 13  1  0
  5 14  1  0
  6 15  1  0
  6 16  1  0
M  END
