
     RDKit          3D

 14 14  0  0  0  0  0  0  0  0999 V2000
   -1.1311   -0.2227   -0.2253 C   0  0  0  0  0  0  0  0  0  0  0  0
   -0.0866   -1.0489    0.4808 C   0  0  0  0  0  0  0  0  0  0  0  0
    1.2242   -0.4254    0.0493 C   0  0  0  0  0  0  0  0  0  0  0  0
    0.9719    0.9848   -0.2463 N   0  0  0  0  0  0  0  0  0  0  0  0
   -0.4762    1.1360   -0.4226 C   0  0  0  0  0  0  0  0  0  0  0  0
   -2.0633   -0.1466    0.3757 H   0  0  0  0  0  0  0  0  0  0  0  0
   -1.3636   -0.6774   -1.2138 H   0  0  0  0  0  0  0  0  0  0  0  0
   -0.2063   -0.9463    1.5821 H   0  0  0  0  0  0  0  0  0  0  0  0
   -0.1464   -2.1214    0.1945 H   0  0  0  0  0  0  0  0  0  0  0  0
    1.9977   -0.5404    0.8414 H   0  0  0  0  0  0  0  0  0  0  0  0
    1.5889   -0.9245   -0.8748 H   0  0  0  0  0  0  0  0  0  0  0  0
    1.2636    1.5497    0.5865 H   0  0  0  0  0  0  0  0  0  0  0  0
   -0.6870    1.5207   -1.4434 H   0  0  0  0  0  0  0  0  0  0  0  0
   -0.8859    1.8625    0.3160 H   0  0  0  0  0  0  0  0  0  0  0  0
  1  2  1  0
  2  3  1  0
  3  4  1  0
  4  5  1  0
  5  1  1  0
  1  6  1  0
  1  7  1  0
  2  8  1  0
  2  9  1  0
  3 10  1  0
  3 11  1  0
  4 12  1  0
  5 13  1  0
  5 14  1  0
M  END
