
     RDKit          3D

 17 17  0  0  0  0  0  0  0  0999 V2000
   -0.8805   -0.9565    0.3284 C   0  0  0  0  0  0  0  0  0  0  0  0
   -1.2969    0.5072    0.1632 C   0  0  0  0  0  0  0  0  0  0  0  0
   -0.1184    1.4404    0.4753 C   0  0  0  0  0  0  0  0  0  0  0  0
    1.0492    1.1289   -0.3624 N   0  0  0  0  0  0  0  0  0  0  0  0
    1.4904   -0.2593   -0.1617 C   0  0  0  0  0  0  0  0  0  0  0  0
    0.3725   -1.2566   -0.4979 C   0  0  0  0  0  0  0  0  0  0  0  0
   -0.6781   -1.1671    1.4017 H   0  0  0  0  0  0  0  0  0  0  0  0
   -1.7101   -1.6179   -0.0019 H   0  0  0  0  0  0  0  0  0  0  0  0
   -1.6445    0.6816   -0.8787 H   0  0  0  0  0  0  0  0  0  0  0  0
   -2.1401    0.7320    0.8511 H   0  0  0  0  0  0  0  0  0  0  0  0
   -0.4290    2.4912    0.2901 H   0  0  0  0  0  0  0  0  0  0  0  0
    0.1561    1.3597    1.5505 H   0  0  0  0  0  0  0  0  0  0  0  0
    0.7910    1.2618   -1.3689 H   0  0  0  0  0  0  0  0  0  0  0  0
    2.3654   -0.4611   -0.8164 H   0  0  0  0  0  0  0  0  0  0  0  0
    1.8229   -0.4013    0.8905 H   0  0  0  0  0  0  0  0  0  0  0  0
    0.7199   -2.2897   -0.2814 H   0  0  0  0  0  0  0  0  0  0  0  0
    0.1299   -1.1931   -1.5814 H   0  0  0  0  0  0  0  0  0  0  0  0
  1  2  1  0
  2  3  1  0
  3  4  1  0
  4  5  1  0
  5  6  1  0
  6  1  1  0
  1  7  1  0
  1  8  1  0
  2  9  1  0
  2 10  1  0
  3 11  1  0
  3 12  1  0
  4 13  1  0
  5 14  1  0
  5 15  1  0
  6 16  1  0
  6 17  1  0
M  END
