
     RDKit          3D

 14 15  0  0  0  0  0  0  0  0999 V2000
   -1.5431    0.2299    0.0094 C   0  0  0  0  0  0  0  0  0  0  0  0
   -0.6191   -0.8254   -0.6297 C   0  0  0  0  0  0  0  0  0  0  0  0
    0.5158   -0.1357    0.0731 C   0  0  0  0  0  0  0  0  0  0  0  0
   -0.3522    0.9117    0.7113 C   0  0  0  0  0  0  0  0  0  0  0  0
    1.9780   -0.3626    0.0760 C   0  0  0  0  0  0  0  0  0  0  0  0
    1.3734    0.4670   -0.8782 O   0  0  0  0  0  0  0  0  0  0  0  0
   -2.0210    0.8885   -0.7487 H   0  0  0  0  0  0  0  0  0  0  0  0
   -2.2626   -0.2164    0.7306 H   0  0  0  0  0  0  0  0  0  0  0  0
   -0.5845   -0.7540   -1.7395 H   0  0  0  0  0  0  0  0  0  0  0  0
   -0.7952   -1.8475   -0.2316 H   0  0  0  0  0  0  0  0  0  0  0  0
   -0.3875    0.8056    1.8166 H   0  0  0  0  0  0  0  0  0  0  0  0
   -0.1695    1.9463    0.3452 H   0  0  0  0  0  0  0  0  0  0  0  0
    2.3153   -1.3245   -0.3623 H   0  0  0  0  0  0  0  0  0  0  0  0
    2.5522    0.2172    0.8278 H   0  0  0  0  0  0  0  0  0  0  0  0
  1  2  1  0
  2  3  1  0
  3  4  1  0
  3  5  1  0
  5  6  1  0
  4  1  1  0
  6  3  1  0
  1  7  1  0
  1  8  1  0
  2  9  1  0
  2 10  1  0
  4 11  1  0
  4 12  1  0
  5 13  1  0
  5 14  1  0
M  END
