
     RDKit          3D

 20 21  0  0  0  0  0  0  0  0999 V2000
   -1.3552    0.7517    0.0895 C   0  0  0  0  0  0  0  0  0  0  0  0
   -1.2373   -0.5234   -0.7819 C   0  0  0  0  0  0  0  0  0  0  0  0
    0.2133   -1.0459   -0.7307 C   0  0  0  0  0  0  0  0  0  0  0  0
    0.5694   -1.3060    0.7547 C   0  0  0  0  0  0  0  0  0  0  0  0
    0.4587   -0.0603    1.5536 N   0  0  0  0  0  0  0  0  0  0  0  0
    0.0208    1.0772    0.7188 C   0  0  0  0  0  0  0  0  0  0  0  0
    1.0421    1.2381   -0.4302 C   0  0  0  0  0  0  0  0  0  0  0  0
    1.1032    0.0087   -1.2604 N   0  0  0  0  0  0  0  0  0  0  0  0
   -2.1069    0.5951    0.8935 H   0  0  0  0  0  0  0  0  0  0  0  0
   -1.6977    1.6081   -0.5318 H   0  0  0  0  0  0  0  0  0  0  0  0
   -1.9356   -1.3060   -0.4121 H   0  0  0  0  0  0  0  0  0  0  0  0
   -1.5108   -0.2915   -1.8343 H   0  0  0  0  0  0  0  0  0  0  0  0
    0.3144   -1.9758   -1.3316 H   0  0  0  0  0  0  0  0  0  0  0  0
    1.6116   -1.6838    0.8228 H   0  0  0  0  0  0  0  0  0  0  0  0
   -0.0986   -2.0949    1.1684 H   0  0  0  0  0  0  0  0  0  0  0  0
   -0.2391   -0.2034    2.3214 H   0  0  0  0  0  0  0  0  0  0  0  0
   -0.0328    2.0051    1.3286 H   0  0  0  0  0  0  0  0  0  0  0  0
    0.7512    2.0953   -1.0743 H   0  0  0  0  0  0  0  0  0  0  0  0
    2.0436    1.4659   -0.0006 H   0  0  0  0  0  0  0  0  0  0  0  0
    2.0856   -0.3543   -1.2634 H   0  0  0  0  0  0  0  0  0  0  0  0
  1  2  1  0
  2  3  1  0
  3  4  1  0
  4  5  1  0
  5  6  1  0
  6  7  1  0
  7  8  1  0
  6  1  1  0
  8  3  1  0
  1  9  1  0
  1 10  1  0
  2 11  1  0
  2 12  1  0
  3 13  1  0
  4 14  1  0
  4 15  1  0
  5 16  1  0
  6 17  1  0
  7 18  1  0
  7 19  1  0
  8 20  1  0
M  END
