
     RDKit          3D

 29 30  0  0  0  0  0  0  0  0999 V2000
   -2.9177    0.2976   -0.3077 C   0  0  0  0  0  0  0  0  0  0  0  0
   -1.8720    1.4181   -0.4218 C   0  0  0  0  0  0  0  0  0  0  0  0
   -0.5099    0.8576   -0.8396 C   0  0  0  0  0  0  0  0  0  0  0  0
    0.0232   -0.1887    0.2021 C   0  0  0  0  0  0  0  0  0  0  0  0
    0.8781   -1.2675   -0.5235 C   0  0  0  0  0  0  0  0  0  0  0  0
    2.1459   -0.6775   -1.1836 C   0  0  0  0  0  0  0  0  0  0  0  0
    2.5605    0.6042   -0.5879 N   0  0  0  0  0  0  0  0  0  0  0  0
    2.4064    0.5906    0.8691 C   0  0  0  0  0  0  0  0  0  0  0  0
    0.9166    0.5266    1.2608 C   0  0  0  0  0  0  0  0  0  0  0  0
   -1.1032   -0.8308    0.9323 N   0  0  0  0  0  0  0  0  0  0  0  0
   -2.2918   -1.0467    0.0973 C   0  0  0  0  0  0  0  0  0  0  0  0
   -3.4372    0.1718   -1.2827 H   0  0  0  0  0  0  0  0  0  0  0  0
   -3.6814    0.5955    0.4435 H   0  0  0  0  0  0  0  0  0  0  0  0
   -1.7699    1.9324    0.5588 H   0  0  0  0  0  0  0  0  0  0  0  0
   -2.2121    2.1718   -1.1645 H   0  0  0  0  0  0  0  0  0  0  0  0
   -0.6303    0.3866   -1.8408 H   0  0  0  0  0  0  0  0  0  0  0  0
    0.2016    1.7013   -0.9711 H   0  0  0  0  0  0  0  0  0  0  0  0
    1.2003   -2.0331    0.2171 H   0  0  0  0  0  0  0  0  0  0  0  0
    0.2767   -1.7993   -1.2917 H   0  0  0  0  0  0  0  0  0  0  0  0
    2.9745   -1.4183   -1.1156 H   0  0  0  0  0  0  0  0  0  0  0  0
    1.9428   -0.5068   -2.2626 H   0  0  0  0  0  0  0  0  0  0  0  0
    3.5730    0.7533   -0.8084 H   0  0  0  0  0  0  0  0  0  0  0  0
    2.8564    1.5125    1.2976 H   0  0  0  0  0  0  0  0  0  0  0  0
    2.9526   -0.2789    1.3017 H   0  0  0  0  0  0  0  0  0  0  0  0
    0.8523   -0.0068    2.2352 H   0  0  0  0  0  0  0  0  0  0  0  0
    0.5391    1.5557    1.4495 H   0  0  0  0  0  0  0  0  0  0  0  0
   -0.8065   -1.7495    1.3382 H   0  0  0  0  0  0  0  0  0  0  0  0
   -3.0418   -1.6387    0.6658 H   0  0  0  0  0  0  0  0  0  0  0  0
   -2.0263   -1.6328   -0.8098 H   0  0  0  0  0  0  0  0  0  0  0  0
  1  2  1  0
  2  3  1  0
  3  4  1  0
  4  5  1  0
  5  6  1  0
  6  7  1  0
  7  8  1  0
  8  9  1  0
  4 10  1  0
 10 11  1  0
 11  1  1  0
  9  4  1  0
  1 12  1  0
  1 13  1  0
  2 14  1  0
  2 15  1  0
  3 16  1  0
  3 17  1  0
  5 18  1  0
  5 19  1  0
  6 20  1  0
  6 21  1  0
  7 22  1  0
  8 23  1  0
  8 24  1  0
  9 25  1  0
  9 26  1  0
 10 27  1  0
 11 28  1  0
 11 29  1  0
M  END
