
     RDKit          3D

 16 17  0  0  0  0  0  0  0  0999 V2000
   -1.7600   -0.1797    0.2396 C   0  0  0  0  0  0  0  0  0  0  0  0
   -0.5785    0.1389    1.1816 C   0  0  0  0  0  0  0  0  0  0  0  0
    0.3060   -0.1182   -0.0015 C   0  0  0  0  0  0  0  0  0  0  0  0
   -0.8103   -0.4346   -0.9511 C   0  0  0  0  0  0  0  0  0  0  0  0
    1.7659   -0.4859   -0.0613 C   0  0  0  0  0  0  0  0  0  0  0  0
    1.3128    0.9441   -0.3966 C   0  0  0  0  0  0  0  0  0  0  0  0
   -2.3112   -1.0958    0.5459 H   0  0  0  0  0  0  0  0  0  0  0  0
   -2.4183    0.7014    0.0742 H   0  0  0  0  0  0  0  0  0  0  0  0
   -0.4477   -0.6229    1.9796 H   0  0  0  0  0  0  0  0  0  0  0  0
   -0.5766    1.1960    1.5262 H   0  0  0  0  0  0  0  0  0  0  0  0
   -0.9345    0.3104   -1.7671 H   0  0  0  0  0  0  0  0  0  0  0  0
   -0.8013   -1.4977   -1.2735 H   0  0  0  0  0  0  0  0  0  0  0  0
    2.0377   -1.1061   -0.9411 H   0  0  0  0  0  0  0  0  0  0  0  0
    2.2416   -0.6016    0.9352 H   0  0  0  0  0  0  0  0  0  0  0  0
    1.3855    1.1742   -1.4808 H   0  0  0  0  0  0  0  0  0  0  0  0
    1.5889    1.6774    0.3907 H   0  0  0  0  0  0  0  0  0  0  0  0
  1  2  1  0
  2  3  1  0
  3  4  1  0
  3  5  1  0
  5  6  1  0
  4  1  1  0
  6  3  1  0
  1  7  1  0
  1  8  1  0
  2  9  1  0
  2 10  1  0
  4 11  1  0
  4 12  1  0
  5 13  1  0
  5 14  1  0
  6 15  1  0
  6 16  1  0
M  END
