
     RDKit          3D

 15 16  0  0  0  0  0  0  0  0999 V2000
   -1.6110   -0.6009    0.3613 C   0  0  0  0  0  0  0  0  0  0  0  0
   -1.2055    0.5866   -0.5030 C   0  0  0  0  0  0  0  0  0  0  0  0
   -0.1464   -0.2671    0.1915 C   0  0  0  0  0  0  0  0  0  0  0  0
    0.8607    0.5152    0.9705 C   0  0  0  0  0  0  0  0  0  0  0  0
    1.9369    0.0434    0.0724 N   0  0  0  0  0  0  0  0  0  0  0  0
    0.9515   -0.7368   -0.7069 C   0  0  0  0  0  0  0  0  0  0  0  0
   -1.9207   -1.5096   -0.1963 H   0  0  0  0  0  0  0  0  0  0  0  0
   -2.0054   -0.3432    1.3665 H   0  0  0  0  0  0  0  0  0  0  0  0
   -1.4699    1.5550   -0.0266 H   0  0  0  0  0  0  0  0  0  0  0  0
   -1.3856    0.3938   -1.5824 H   0  0  0  0  0  0  0  0  0  0  0  0
    0.7324    1.6217    0.9352 H   0  0  0  0  0  0  0  0  0  0  0  0
    0.9940    0.1112    1.9966 H   0  0  0  0  0  0  0  0  0  0  0  0
    2.2559    0.8516   -0.5135 H   0  0  0  0  0  0  0  0  0  0  0  0
    1.1345   -1.8273   -0.6005 H   0  0  0  0  0  0  0  0  0  0  0  0
    0.8785   -0.3935   -1.7646 H   0  0  0  0  0  0  0  0  0  0  0  0
  1  2  1  0
  2  3  1  0
  3  4  1  0
  4  5  1  0
  5  6  1  0
  3  1  1  0
  6  3  1  0
  1  7  1  0
  1  8  1  0
  2  9  1  0
  2 10  1  0
  4 11  1  0
  4 12  1  0
  5 13  1  0
  6 14  1  0
  6 15  1  0
M  END
