
     RDKit          3D

 26 27  0  0  0  0  0  0  0  0999 V2000
    2.2632   -0.6594    0.6949 C   0  0  0  0  0  0  0  0  0  0  0  0
    0.9795   -1.5019    0.6168 C   0  0  0  0  0  0  0  0  0  0  0  0
   -0.2545   -0.7240    1.1031 C   0  0  0  0  0  0  0  0  0  0  0  0
   -0.9337    0.1160   -0.0102 C   0  0  0  0  0  0  0  0  0  0  0  0
    0.0213    0.8417   -0.9901 C   0  0  0  0  0  0  0  0  0  0  0  0
    1.2029    1.3699   -0.2876 N   0  0  0  0  0  0  0  0  0  0  0  0
    2.3454    0.4440   -0.3667 C   0  0  0  0  0  0  0  0  0  0  0  0
   -2.0546    1.0045    0.5353 C   0  0  0  0  0  0  0  0  0  0  0  0
   -3.0989    0.2781   -0.1885 N   0  0  0  0  0  0  0  0  0  0  0  0
   -2.0708   -0.6097   -0.7340 C   0  0  0  0  0  0  0  0  0  0  0  0
    2.3642   -0.2101    1.7071 H   0  0  0  0  0  0  0  0  0  0  0  0
    3.1338   -1.3362    0.5541 H   0  0  0  0  0  0  0  0  0  0  0  0
    0.8256   -1.8942   -0.4121 H   0  0  0  0  0  0  0  0  0  0  0  0
    1.1158   -2.3822    1.2823 H   0  0  0  0  0  0  0  0  0  0  0  0
    0.0347   -0.0538    1.9426 H   0  0  0  0  0  0  0  0  0  0  0  0
   -0.9839   -1.4448    1.5344 H   0  0  0  0  0  0  0  0  0  0  0  0
   -0.5162    1.6767   -1.4945 H   0  0  0  0  0  0  0  0  0  0  0  0
    0.3056    0.1482   -1.8132 H   0  0  0  0  0  0  0  0  0  0  0  0
    1.4894    2.2529   -0.7724 H   0  0  0  0  0  0  0  0  0  0  0  0
    3.2817    1.0149   -0.1779 H   0  0  0  0  0  0  0  0  0  0  0  0
    2.4548    0.0006   -1.3818 H   0  0  0  0  0  0  0  0  0  0  0  0
   -1.9910    2.0729    0.2249 H   0  0  0  0  0  0  0  0  0  0  0  0
   -2.2108    0.9086    1.6327 H   0  0  0  0  0  0  0  0  0  0  0  0
   -3.4519    0.8907   -0.9619 H   0  0  0  0  0  0  0  0  0  0  0  0
   -2.2348   -1.6546   -0.3911 H   0  0  0  0  0  0  0  0  0  0  0  0
   -2.0166   -0.5490   -1.8460 H   0  0  0  0  0  0  0  0  0  0  0  0
  1  2  1  0
  2  3  1  0
  3  4  1  0
  4  5  1  0
  5  6  1  0
  6  7  1  0
  4  8  1  0
  8  9  1  0
  9 10  1  0
  7  1  1  0
 10  4  1  0
  1 11  1  0
  1 12  1  0
  2 13  1  0
  2 14  1  0
  3 15  1  0
  3 16  1  0
  5 17  1  0
  5 18  1  0
  6 19  1  0
  7 20  1  0
  7 21  1  0
  8 22  1  0
  8 23  1  0
  9 24  1  0
 10 25  1  0
 10 26  1  0
M  END
