
     RDKit          3D

 20 21  0  0  0  0  0  0  0  0999 V2000
   -2.0130    0.2626    0.5913 C   0  0  0  0  0  0  0  0  0  0  0  0
   -0.7077   -0.3696    1.0490 C   0  0  0  0  0  0  0  0  0  0  0  0
    0.2302   -0.1109   -0.1170 C   0  0  0  0  0  0  0  0  0  0  0  0
    1.4505   -1.0140   -0.2161 C   0  0  0  0  0  0  0  0  0  0  0  0
    2.2386    0.2799   -0.0982 C   0  0  0  0  0  0  0  0  0  0  0  0
    1.0361    1.1123    0.0019 N   0  0  0  0  0  0  0  0  0  0  0  0
   -0.6762   -0.0694   -1.3373 C   0  0  0  0  0  0  0  0  0  0  0  0
   -2.0016    0.3522   -0.8763 N   0  0  0  0  0  0  0  0  0  0  0  0
   -2.1107    1.2770    1.0415 H   0  0  0  0  0  0  0  0  0  0  0  0
   -2.8777   -0.3519    0.9212 H   0  0  0  0  0  0  0  0  0  0  0  0
   -0.3531    0.0547    2.0131 H   0  0  0  0  0  0  0  0  0  0  0  0
   -0.8572   -1.4654    1.1718 H   0  0  0  0  0  0  0  0  0  0  0  0
    1.5942   -1.6791    0.6633 H   0  0  0  0  0  0  0  0  0  0  0  0
    1.5795   -1.5030   -1.2064 H   0  0  0  0  0  0  0  0  0  0  0  0
    2.8080    0.5161   -1.0236 H   0  0  0  0  0  0  0  0  0  0  0  0
    2.8630    0.3197    0.8239 H   0  0  0  0  0  0  0  0  0  0  0  0
    0.9907    1.5057    0.9714 H   0  0  0  0  0  0  0  0  0  0  0  0
   -0.7678   -1.0866   -1.7763 H   0  0  0  0  0  0  0  0  0  0  0  0
   -0.2828    0.6160   -2.1221 H   0  0  0  0  0  0  0  0  0  0  0  0
   -2.1430    1.3539   -1.1485 H   0  0  0  0  0  0  0  0  0  0  0  0
  1  2  1  0
  2  3  1  0
  3  4  1  0
  4  5  1  0
  5  6  1  0
  3  7  1  0
  7  8  1  0
  8  1  1  0
  6  3  1  0
  1  9  1  0
  1 10  1  0
  2 11  1  0
  2 12  1  0
  4 13  1  0
  4 14  1  0
  5 15  1  0
  5 16  1  0
  6 17  1  0
  7 18  1  0
  7 19  1  0
  8 20  1  0
M  END
