
     RDKit          3D

 17 18  0  0  0  0  0  0  0  0999 V2000
    1.9524   -0.0961   -0.2808 C   0  0  0  0  0  0  0  0  0  0  0  0
    0.9889    0.9136    0.3425 C   0  0  0  0  0  0  0  0  0  0  0  0
   -0.0536   -0.0919   -0.0761 C   0  0  0  0  0  0  0  0  0  0  0  0
   -1.2033    0.3156   -0.9664 C   0  0  0  0  0  0  0  0  0  0  0  0
   -2.1949   -0.1927   -0.0068 N   0  0  0  0  0  0  0  0  0  0  0  0
   -1.1029   -0.6038    0.8876 C   0  0  0  0  0  0  0  0  0  0  0  0
    0.8901   -1.0456   -0.6475 N   0  0  0  0  0  0  0  0  0  0  0  0
    2.6672   -0.5209    0.4614 H   0  0  0  0  0  0  0  0  0  0  0  0
    2.4559    0.3046   -1.1879 H   0  0  0  0  0  0  0  0  0  0  0  0
    1.1085    0.9966    1.4442 H   0  0  0  0  0  0  0  0  0  0  0  0
    0.9449    1.8716   -0.2191 H   0  0  0  0  0  0  0  0  0  0  0  0
   -1.2839    1.4171   -1.1122 H   0  0  0  0  0  0  0  0  0  0  0  0
   -1.2420   -0.2592   -1.9174 H   0  0  0  0  0  0  0  0  0  0  0  0
   -2.6873    0.6252    0.4255 H   0  0  0  0  0  0  0  0  0  0  0  0
   -1.0949   -1.7080    1.0142 H   0  0  0  0  0  0  0  0  0  0  0  0
   -1.1184   -0.0498    1.8538 H   0  0  0  0  0  0  0  0  0  0  0  0
    0.9733   -1.8762   -0.0149 H   0  0  0  0  0  0  0  0  0  0  0  0
  1  2  1  0
  2  3  1  0
  3  4  1  0
  4  5  1  0
  5  6  1  0
  3  7  1  0
  7  1  1  0
  6  3  1  0
  1  8  1  0
  1  9  1  0
  2 10  1  0
  2 11  1  0
  4 12  1  0
  4 13  1  0
  5 14  1  0
  6 15  1  0
  6 16  1  0
  7 17  1  0
M  END
