
     RDKit          3D

 12 12  0  0  0  0  0  0  0  0999 V2000
    0.9887    0.4204   -0.0557 C   0  0  0  0  0  0  0  0  0  0  0  0
   -0.3376    0.8658    0.5421 C   0  0  0  0  0  0  0  0  0  0  0  0
   -0.9887   -0.4204    0.0557 C   0  0  0  0  0  0  0  0  0  0  0  0
    0.3376   -0.8658   -0.5421 C   0  0  0  0  0  0  0  0  0  0  0  0
    1.7668    0.2394    0.7179 H   0  0  0  0  0  0  0  0  0  0  0  0
    1.3214    1.0736   -0.8919 H   0  0  0  0  0  0  0  0  0  0  0  0
   -0.7499    1.7692    0.0417 H   0  0  0  0  0  0  0  0  0  0  0  0
   -0.3045    0.9350    1.6514 H   0  0  0  0  0  0  0  0  0  0  0  0
   -1.7668   -0.2394   -0.7179 H   0  0  0  0  0  0  0  0  0  0  0  0
   -1.3214   -1.0737    0.8918 H   0  0  0  0  0  0  0  0  0  0  0  0
    0.3045   -0.9350   -1.6514 H   0  0  0  0  0  0  0  0  0  0  0  0
    0.7499   -1.7692   -0.0417 H   0  0  0  0  0  0  0  0  0  0  0  0
  1  2  1  0
  2  3  1  0
  3  4  1  0
  4  1  1  0
  1  5  1  0
  1  6  1  0
  2  7  1  0
  2  8  1  0
  3  9  1  0
  3 10  1  0
  4 11  1  0
  4 12  1  0
M  END
