
     RDKit          3D

 17 18  0  0  0  0  0  0  0  0999 V2000
   -1.9016    0.3518    0.4479 C   0  0  0  0  0  0  0  0  0  0  0  0
   -1.0506    0.5137   -0.8151 C   0  0  0  0  0  0  0  0  0  0  0  0
    0.1636    0.1115    0.0012 C   0  0  0  0  0  0  0  0  0  0  0  0
   -0.6703   -0.0676    1.2562 C   0  0  0  0  0  0  0  0  0  0  0  0
    1.0711   -0.9904   -0.4746 C   0  0  0  0  0  0  0  0  0  0  0  0
    2.1163    0.1058   -0.3589 C   0  0  0  0  0  0  0  0  0  0  0  0
    1.1831    1.0703    0.0831 O   0  0  0  0  0  0  0  0  0  0  0  0
   -2.6491   -0.4663    0.3555 H   0  0  0  0  0  0  0  0  0  0  0  0
   -2.3308    1.3163    0.7973 H   0  0  0  0  0  0  0  0  0  0  0  0
   -1.3186   -0.2262   -1.6005 H   0  0  0  0  0  0  0  0  0  0  0  0
   -1.0073    1.5665   -1.1698 H   0  0  0  0  0  0  0  0  0  0  0  0
   -0.7314   -1.1238    1.5981 H   0  0  0  0  0  0  0  0  0  0  0  0
   -0.4150    0.6613    2.0561 H   0  0  0  0  0  0  0  0  0  0  0  0
    0.8898   -1.3036   -1.5254 H   0  0  0  0  0  0  0  0  0  0  0  0
    1.2186   -1.8062    0.2656 H   0  0  0  0  0  0  0  0  0  0  0  0
    2.8781   -0.1043    0.4241 H   0  0  0  0  0  0  0  0  0  0  0  0
    2.5540    0.3910   -1.3410 H   0  0  0  0  0  0  0  0  0  0  0  0
  1  2  1  0
  2  3  1  0
  3  4  1  0
  3  5  1  0
  5  6  1  0
  6  7  1  0
  4  1  1  0
  7  3  1  0
  1  8  1  0
  1  9  1  0
  2 10  1  0
  2 11  1  0
  4 12  1  0
  4 13  1  0
  5 14  1  0
  5 15  1  0
  6 16  1  0
  6 17  1  0
M  END
