
     RDKit          3D

 17 18  0  0  0  0  0  0  0  0999 V2000
    1.6915   -0.5916   -0.3616 C   0  0  0  0  0  0  0  0  0  0  0  0
    0.6502    0.2223   -1.1404 C   0  0  0  0  0  0  0  0  0  0  0  0
   -0.2693    0.0942    0.0576 C   0  0  0  0  0  0  0  0  0  0  0  0
    0.7475   -0.7111    0.8416 C   0  0  0  0  0  0  0  0  0  0  0  0
   -0.9117    1.3107    0.6621 C   0  0  0  0  0  0  0  0  0  0  0  0
   -2.2054    0.7713    0.4715 O   0  0  0  0  0  0  0  0  0  0  0  0
   -1.6767   -0.4055   -0.1087 C   0  0  0  0  0  0  0  0  0  0  0  0
    1.9027   -1.5753   -0.8353 H   0  0  0  0  0  0  0  0  0  0  0  0
    2.6045   -0.0010   -0.1283 H   0  0  0  0  0  0  0  0  0  0  0  0
    0.9864    1.2647   -1.3310 H   0  0  0  0  0  0  0  0  0  0  0  0
    0.2819   -0.3158   -2.0408 H   0  0  0  0  0  0  0  0  0  0  0  0
    0.4325   -1.7609    1.0276 H   0  0  0  0  0  0  0  0  0  0  0  0
    1.1370   -0.1804    1.7374 H   0  0  0  0  0  0  0  0  0  0  0  0
   -0.7739    2.2353    0.0598 H   0  0  0  0  0  0  0  0  0  0  0  0
   -0.6913    1.4421    1.7440 H   0  0  0  0  0  0  0  0  0  0  0  0
   -1.9944   -0.5029   -1.1699 H   0  0  0  0  0  0  0  0  0  0  0  0
   -1.9117   -1.2961    0.5143 H   0  0  0  0  0  0  0  0  0  0  0  0
  1  2  1  0
  2  3  1  0
  3  4  1  0
  3  5  1  0
  5  6  1  0
  6  7  1  0
  4  1  1  0
  7  3  1  0
  1  8  1  0
  1  9  1  0
  2 10  1  0
  2 11  1  0
  4 12  1  0
  4 13  1  0
  5 14  1  0
  5 15  1  0
  7 16  1  0
  7 17  1  0
M  END
