
     RDKit          3D

 10 10  0  0  0  0  0  0  0  0999 V2000
    0.0235    1.1771    0.0899 C   0  0  0  0  0  0  0  0  0  0  0  0
   -1.0862    0.3780    0.2800 C   0  0  0  0  0  0  0  0  0  0  0  0
   -0.6658   -0.9243    0.1034 C   0  0  0  0  0  0  0  0  0  0  0  0
    0.6476   -0.9477   -0.1848 N   0  0  0  0  0  0  0  0  0  0  0  0
    1.0733    0.3280   -0.1946 C   0  0  0  0  0  0  0  0  0  0  0  0
    0.0623    2.2564    0.1518 H   0  0  0  0  0  0  0  0  0  0  0  0
   -2.0880    0.7080    0.5202 H   0  0  0  0  0  0  0  0  0  0  0  0
   -1.2874   -1.8066    0.1815 H   0  0  0  0  0  0  0  0  0  0  0  0
    1.2276   -1.7964   -0.3667 H   0  0  0  0  0  0  0  0  0  0  0  0
    2.0931    0.6276   -0.3976 H   0  0  0  0  0  0  0  0  0  0  0  0
  1  2  1  0
  2  3  2  0
  3  4  1  0
  4  5  1  0
  5  1  2  0
  1  6  1  0
  2  7  1  0
  3  8  1  0
  4  9  1  0
  5 10  1  0
M  END
