
     RDKit          3D

 13 13  0  0  0  0  0  0  0  0999 V2000
    0.0404    1.0332    0.2412 C   0  0  0  0  0  0  0  0  0  0  0  0
    1.0612   -0.0330    0.0016 C   0  0  0  0  0  0  0  0  0  0  0  0
    0.2461   -1.1510   -0.6140 C   0  0  0  0  0  0  0  0  0  0  0  0
   -1.1062   -1.0043   -0.2439 O   0  0  0  0  0  0  0  0  0  0  0  0
   -1.2438    0.2451    0.3940 C   0  0  0  0  0  0  0  0  0  0  0  0
   -0.0266    1.7017   -0.6458 H   0  0  0  0  0  0  0  0  0  0  0  0
    0.2714    1.6306    1.1499 H   0  0  0  0  0  0  0  0  0  0  0  0
    1.4960   -0.3676    0.9697 H   0  0  0  0  0  0  0  0  0  0  0  0
    1.8701    0.3137   -0.6778 H   0  0  0  0  0  0  0  0  0  0  0  0
    0.3208   -1.1068   -1.7223 H   0  0  0  0  0  0  0  0  0  0  0  0
    0.6230   -2.1389   -0.2732 H   0  0  0  0  0  0  0  0  0  0  0  0
   -1.4567    0.0754    1.4719 H   0  0  0  0  0  0  0  0  0  0  0  0
   -2.0957    0.8017   -0.0515 H   0  0  0  0  0  0  0  0  0  0  0  0
  1  2  1  0
  2  3  1  0
  3  4  1  0
  4  5  1  0
  5  1  1  0
  1  6  1  0
  1  7  1  0
  2  8  1  0
  2  9  1  0
  3 10  1  0
  3 11  1  0
  5 12  1  0
  5 13  1  0
M  END
