
     RDKit          3D

 26 27  0  0  0  0  0  0  0  0999 V2000
    2.5682   -0.0844    0.0412 C   0  0  0  0  0  0  0  0  0  0  0  0
    1.6918   -0.6036   -1.0977 C   0  0  0  0  0  0  0  0  0  0  0  0
    0.3402   -1.0951   -0.5645 C   0  0  0  0  0  0  0  0  0  0  0  0
   -0.3561   -0.0434    0.3482 C   0  0  0  0  0  0  0  0  0  0  0  0
   -1.5989   -0.6579    0.9864 C   0  0  0  0  0  0  0  0  0  0  0  0
   -2.7212   -0.3822   -0.0029 C   0  0  0  0  0  0  0  0  0  0  0  0
   -2.3109    0.7257   -0.8707 N   0  0  0  0  0  0  0  0  0  0  0  0
   -0.9603    1.1162   -0.4640 C   0  0  0  0  0  0  0  0  0  0  0  0
    0.5762    0.4210    1.4018 N   0  0  0  0  0  0  0  0  0  0  0  0
    1.8193    0.9762    0.8482 C   0  0  0  0  0  0  0  0  0  0  0  0
    2.8530   -0.9270    0.7091 H   0  0  0  0  0  0  0  0  0  0  0  0
    3.4980    0.3562   -0.3787 H   0  0  0  0  0  0  0  0  0  0  0  0
    2.2124   -1.4438   -1.6057 H   0  0  0  0  0  0  0  0  0  0  0  0
    1.5428    0.1979   -1.8519 H   0  0  0  0  0  0  0  0  0  0  0  0
    0.5236   -2.0254    0.0178 H   0  0  0  0  0  0  0  0  0  0  0  0
   -0.3138   -1.3641   -1.4227 H   0  0  0  0  0  0  0  0  0  0  0  0
   -1.8380   -0.1476    1.9464 H   0  0  0  0  0  0  0  0  0  0  0  0
   -1.4944   -1.7459    1.1922 H   0  0  0  0  0  0  0  0  0  0  0  0
   -2.9217   -1.2969   -0.6065 H   0  0  0  0  0  0  0  0  0  0  0  0
   -3.6539   -0.1078    0.5348 H   0  0  0  0  0  0  0  0  0  0  0  0
   -2.2672    0.3749   -1.8570 H   0  0  0  0  0  0  0  0  0  0  0  0
   -1.0446    2.0280    0.1663 H   0  0  0  0  0  0  0  0  0  0  0  0
   -0.3456    1.3868   -1.3490 H   0  0  0  0  0  0  0  0  0  0  0  0
    0.1219    1.1679    1.9789 H   0  0  0  0  0  0  0  0  0  0  0  0
    2.4707    1.3081    1.6852 H   0  0  0  0  0  0  0  0  0  0  0  0
    1.6084    1.8665    0.2148 H   0  0  0  0  0  0  0  0  0  0  0  0
  1  2  1  0
  2  3  1  0
  3  4  1  0
  4  5  1  0
  5  6  1  0
  6  7  1  0
  7  8  1  0
  4  9  1  0
  9 10  1  0
 10  1  1  0
  8  4  1  0
  1 11  1  0
  1 12  1  0
  2 13  1  0
  2 14  1  0
  3 15  1  0
  3 16  1  0
  5 17  1  0
  5 18  1  0
  6 19  1  0
  6 20  1  0
  7 21  1  0
  8 22  1  0
  8 23  1  0
  9 24  1  0
 10 25  1  0
 10 26  1  0
M  END
