
     RDKit          3D

 18 19  0  0  0  0  0  0  0  0999 V2000
   -2.0434   -0.1306   -0.0789 C   0  0  0  0  0  0  0  0  0  0  0  0
   -0.9531    0.4150   -1.0045 C   0  0  0  0  0  0  0  0  0  0  0  0
    0.0859   -0.0638    0.0027 C   0  0  0  0  0  0  0  0  0  0  0  0
   -0.9917   -0.6012    0.9293 C   0  0  0  0  0  0  0  0  0  0  0  0
    1.1198    0.8966    0.5467 C   0  0  0  0  0  0  0  0  0  0  0  0
    2.1073   -0.1673    0.0776 C   0  0  0  0  0  0  0  0  0  0  0  0
    1.0609   -1.0535   -0.4509 N   0  0  0  0  0  0  0  0  0  0  0  0
   -2.6956    0.6721    0.3298 H   0  0  0  0  0  0  0  0  0  0  0  0
   -2.6036   -0.9766   -0.5341 H   0  0  0  0  0  0  0  0  0  0  0  0
   -0.9974    1.5221   -1.0959 H   0  0  0  0  0  0  0  0  0  0  0  0
   -0.9242   -0.1205   -1.9781 H   0  0  0  0  0  0  0  0  0  0  0  0
   -1.0617   -0.0533    1.8941 H   0  0  0  0  0  0  0  0  0  0  0  0
   -0.9688   -1.7081    1.0335 H   0  0  0  0  0  0  0  0  0  0  0  0
    1.1006    1.0075    1.6524 H   0  0  0  0  0  0  0  0  0  0  0  0
    1.2021    1.8405   -0.0342 H   0  0  0  0  0  0  0  0  0  0  0  0
    2.7934    0.2052   -0.7176 H   0  0  0  0  0  0  0  0  0  0  0  0
    2.6438   -0.6492    0.9243 H   0  0  0  0  0  0  0  0  0  0  0  0
    1.1256   -1.0349   -1.4961 H   0  0  0  0  0  0  0  0  0  0  0  0
  1  2  1  0
  2  3  1  0
  3  4  1  0
  3  5  1  0
  5  6  1  0
  6  7  1  0
  4  1  1  0
  7  3  1  0
  1  8  1  0
  1  9  1  0
  2 10  1  0
  2 11  1  0
  4 12  1  0
  4 13  1  0
  5 14  1  0
  5 15  1  0
  6 16  1  0
  6 17  1  0
  7 18  1  0
M  END
