
     RDKit          3D

 20 21  0  0  0  0  0  0  0  0999 V2000
    0.8211   -0.9402    0.9101 C   0  0  0  0  0  0  0  0  0  0  0  0
    1.3502    0.4567    0.5958 C   0  0  0  0  0  0  0  0  0  0  0  0
    0.6626    0.8153   -0.7279 C   0  0  0  0  0  0  0  0  0  0  0  0
   -0.6993    1.5085   -0.4841 C   0  0  0  0  0  0  0  0  0  0  0  0
   -1.6014    0.6860    0.3530 N   0  0  0  0  0  0  0  0  0  0  0  0
   -1.5573   -0.7570    0.0256 C   0  0  0  0  0  0  0  0  0  0  0  0
   -0.1177   -1.2450   -0.2643 C   0  0  0  0  0  0  0  0  0  0  0  0
    0.3831   -0.4560   -1.3818 N   0  0  0  0  0  0  0  0  0  0  0  0
    1.6596   -1.6706    0.9211 H   0  0  0  0  0  0  0  0  0  0  0  0
    0.2997   -0.9753    1.8917 H   0  0  0  0  0  0  0  0  0  0  0  0
    2.4522    0.4219    0.4502 H   0  0  0  0  0  0  0  0  0  0  0  0
    1.1164    1.1811    1.4065 H   0  0  0  0  0  0  0  0  0  0  0  0
    1.3126    1.4559   -1.3641 H   0  0  0  0  0  0  0  0  0  0  0  0
   -0.5358    2.4960    0.0005 H   0  0  0  0  0  0  0  0  0  0  0  0
   -1.1908    1.6993   -1.4626 H   0  0  0  0  0  0  0  0  0  0  0  0
   -1.3390    0.8128    1.3583 H   0  0  0  0  0  0  0  0  0  0  0  0
   -1.9904   -1.3445    0.8647 H   0  0  0  0  0  0  0  0  0  0  0  0
   -2.1915   -0.9427   -0.8681 H   0  0  0  0  0  0  0  0  0  0  0  0
   -0.1211   -2.3294   -0.5123 H   0  0  0  0  0  0  0  0  0  0  0  0
    1.2868   -0.8727   -1.7123 H   0  0  0  0  0  0  0  0  0  0  0  0
  1  2  1  0
  2  3  1  0
  3  4  1  0
  4  5  1  0
  5  6  1  0
  6  7  1  0
  7  8  1  0
  7  1  1  0
  8  3  1  0
  1  9  1  0
  1 10  1  0
  2 11  1  0
  2 12  1  0
  3 13  1  0
  4 14  1  0
  4 15  1  0
  5 16  1  0
  6 17  1  0
  6 18  1  0
  7 19  1  0
  8 20  1  0
M  END
