
     RDKit          3D

 17 18  0  0  0  0  0  0  0  0999 V2000
    1.8842    0.1237   -0.1162 C   0  0  0  0  0  0  0  0  0  0  0  0
    0.8352   -0.7753   -0.7817 C   0  0  0  0  0  0  0  0  0  0  0  0
   -0.2210   -0.0726    0.0543 C   0  0  0  0  0  0  0  0  0  0  0  0
    0.8031    0.8273    0.7138 C   0  0  0  0  0  0  0  0  0  0  0  0
   -1.4622    0.4932   -0.5529 C   0  0  0  0  0  0  0  0  0  0  0  0
   -2.2168   -0.3413    0.3883 N   0  0  0  0  0  0  0  0  0  0  0  0
   -1.0325   -0.8756    0.9563 N   0  0  0  0  0  0  0  0  0  0  0  0
    2.3779    0.8088   -0.8399 H   0  0  0  0  0  0  0  0  0  0  0  0
    2.5969   -0.4507    0.5154 H   0  0  0  0  0  0  0  0  0  0  0  0
    0.9778   -1.8477   -0.5263 H   0  0  0  0  0  0  0  0  0  0  0  0
    0.7369   -0.5711   -1.8700 H   0  0  0  0  0  0  0  0  0  0  0  0
    0.9140    0.6409    1.8044 H   0  0  0  0  0  0  0  0  0  0  0  0
    0.6918    1.8985    0.4376 H   0  0  0  0  0  0  0  0  0  0  0  0
   -1.6045    1.5817   -0.3678 H   0  0  0  0  0  0  0  0  0  0  0  0
   -1.6330    0.1658   -1.6007 H   0  0  0  0  0  0  0  0  0  0  0  0
   -2.6520    0.2769    1.1136 H   0  0  0  0  0  0  0  0  0  0  0  0
   -0.9957   -1.8825    0.6719 H   0  0  0  0  0  0  0  0  0  0  0  0
  1  2  1  0
  2  3  1  0
  3  4  1  0
  3  5  1  0
  5  6  1  0
  6  7  1  0
  4  1  1  0
  7  3  1  0
  1  8  1  0
  1  9  1  0
  2 10  1  0
  2 11  1  0
  4 12  1  0
  4 13  1  0
  5 14  1  0
  5 15  1  0
  6 16  1  0
  7 17  1  0
M  END
