
     RDKit          3D

 11 11  0  0  0  0  0  0  0  0999 V2000
    0.0836    1.1716   -0.0027 C   0  0  0  0  0  0  0  0  0  0  0  0
   -1.1715    0.5588   -0.0007 C   0  0  0  0  0  0  0  0  0  0  0  0
   -1.2503   -0.8366    0.0025 C   0  0  0  0  0  0  0  0  0  0  0  0
   -0.1130   -1.5831    0.0037 N   0  0  0  0  0  0  0  0  0  0  0  0
    1.1189   -1.0056    0.0018 C   0  0  0  0  0  0  0  0  0  0  0  0
    1.2390    0.3868   -0.0015 C   0  0  0  0  0  0  0  0  0  0  0  0
    0.1606    2.2512   -0.0052 H   0  0  0  0  0  0  0  0  0  0  0  0
   -2.0730    1.1578   -0.0017 H   0  0  0  0  0  0  0  0  0  0  0  0
   -2.2152   -1.3257    0.0041 H   0  0  0  0  0  0  0  0  0  0  0  0
    2.0046   -1.6268    0.0028 H   0  0  0  0  0  0  0  0  0  0  0  0
    2.2164    0.8517   -0.0030 H   0  0  0  0  0  0  0  0  0  0  0  0
  1  2  2  0
  2  3  1  0
  3  4  2  0
  4  5  1  0
  5  6  2  0
  6  1  1  0
  1  7  1  0
  2  8  1  0
  3  9  1  0
  5 10  1  0
  6 11  1  0
M  END
