
     RDKit          3D

  9  9  0  0  0  0  0  0  0  0999 V2000
    0.6871    0.6926    0.1678 C   0  0  0  0  0  0  0  0  0  0  0  0
   -0.6792    0.6359    0.3363 C   0  0  0  0  0  0  0  0  0  0  0  0
   -1.0625   -0.6171   -0.0935 C   0  0  0  0  0  0  0  0  0  0  0  0
   -0.0077   -1.2862   -0.4986 O   0  0  0  0  0  0  0  0  0  0  0  0
    1.0556   -0.5292   -0.3548 C   0  0  0  0  0  0  0  0  0  0  0  0
    1.3377    1.5255    0.3983 H   0  0  0  0  0  0  0  0  0  0  0  0
   -1.3202    1.4151    0.7262 H   0  0  0  0  0  0  0  0  0  0  0  0
   -2.0726   -1.0041   -0.1020 H   0  0  0  0  0  0  0  0  0  0  0  0
    2.0616   -0.8325   -0.6121 H   0  0  0  0  0  0  0  0  0  0  0  0
  1  2  1  0
  2  3  2  0
  3  4  1  0
  4  5  1  0
  5  1  2  0
  1  6  1  0
  2  7  1  0
  3  8  1  0
  5  9  1  0
M  END
