
     RDKit          3D

 24 25  0  0  0  0  0  0  0  0999 V2000
    1.8634   -0.0105   -1.1817 C   0  0  0  0  0  0  0  0  0  0  0  0
    0.5849   -0.8278   -0.9417 C   0  0  0  0  0  0  0  0  0  0  0  0
   -0.3008   -0.1803    0.1422 C   0  0  0  0  0  0  0  0  0  0  0  0
    0.5482    0.0656    1.4105 C   0  0  0  0  0  0  0  0  0  0  0  0
    1.8283    0.8491    1.0823 C   0  0  0  0  0  0  0  0  0  0  0  0
    2.6297    0.1633    0.0597 N   0  0  0  0  0  0  0  0  0  0  0  0
   -1.4262   -1.0814    0.4334 N   0  0  0  0  0  0  0  0  0  0  0  0
   -2.5251   -0.5272   -0.3236 C   0  0  0  0  0  0  0  0  0  0  0  0
   -2.1739    0.9223   -0.5200 C   0  0  0  0  0  0  0  0  0  0  0  0
   -0.7904    1.0589   -0.3376 O   0  0  0  0  0  0  0  0  0  0  0  0
    1.6085    0.9834   -1.6113 H   0  0  0  0  0  0  0  0  0  0  0  0
    2.4959   -0.5391   -1.9270 H   0  0  0  0  0  0  0  0  0  0  0  0
    0.0191   -0.9053   -1.8957 H   0  0  0  0  0  0  0  0  0  0  0  0
    0.8657   -1.8584   -0.6301 H   0  0  0  0  0  0  0  0  0  0  0  0
   -0.0457    0.6390    2.1555 H   0  0  0  0  0  0  0  0  0  0  0  0
    0.8267   -0.9081    1.8713 H   0  0  0  0  0  0  0  0  0  0  0  0
    2.4347    0.9549    2.0075 H   0  0  0  0  0  0  0  0  0  0  0  0
    1.5721    1.8750    0.7369 H   0  0  0  0  0  0  0  0  0  0  0  0
    2.9099   -0.7790    0.4219 H   0  0  0  0  0  0  0  0  0  0  0  0
   -1.6861   -1.0174    1.4471 H   0  0  0  0  0  0  0  0  0  0  0  0
   -3.4933   -0.6440    0.2136 H   0  0  0  0  0  0  0  0  0  0  0  0
   -2.5891   -1.0446   -1.3057 H   0  0  0  0  0  0  0  0  0  0  0  0
   -2.7002    1.5491    0.2318 H   0  0  0  0  0  0  0  0  0  0  0  0
   -2.4562    1.2622   -1.5392 H   0  0  0  0  0  0  0  0  0  0  0  0
  1  2  1  0
  2  3  1  0
  3  4  1  0
  4  5  1  0
  5  6  1  0
  3  7  1  0
  7  8  1  0
  8  9  1  0
  9 10  1  0
  6  1  1  0
 10  3  1  0
  1 11  1  0
  1 12  1  0
  2 13  1  0
  2 14  1  0
  4 15  1  0
  4 16  1  0
  5 17  1  0
  5 18  1  0
  6 19  1  0
  7 20  1  0
  8 21  1  0
  8 22  1  0
  9 23  1  0
  9 24  1  0
M  END
