
     RDKit          3D

 27 29  0  0  0  0  0  0  0  0999 V2000
    1.1194   -1.0418    0.8166 C   0  0  0  0  0  0  0  0  0  0  0  0
    0.6951    0.2629    1.5320 C   0  0  0  0  0  0  0  0  0  0  0  0
    0.3276    1.3438    0.4864 C   0  0  0  0  0  0  0  0  0  0  0  0
    1.5745    1.5266   -0.4171 C   0  0  0  0  0  0  0  0  0  0  0  0
    1.9312    0.2592   -1.1102 N   0  0  0  0  0  0  0  0  0  0  0  0
    1.0340   -0.8520   -0.7213 C   0  0  0  0  0  0  0  0  0  0  0  0
   -0.4101   -0.4536   -1.1456 C   0  0  1  0  0  0  0  0  0  0  0  0
   -1.4887   -1.4781   -0.7874 C   0  0  0  0  0  0  0  0  0  0  0  0
   -2.2778   -0.9484    0.3252 N   0  0  0  0  0  0  0  0  0  0  0  0
   -2.1262    0.5067    0.2973 C   0  0  0  0  0  0  0  0  0  0  0  0
   -0.8253    0.8437   -0.4351 C   0  0  1  0  0  0  0  0  0  0  0  0
    2.1650   -1.2969    1.0956 H   0  0  0  0  0  0  0  0  0  0  0  0
    0.4845   -1.8896    1.1477 H   0  0  0  0  0  0  0  0  0  0  0  0
    1.5326    0.6313    2.1645 H   0  0  0  0  0  0  0  0  0  0  0  0
   -0.1557    0.0697    2.2175 H   0  0  0  0  0  0  0  0  0  0  0  0
    0.0559    2.3004    0.9833 H   0  0  0  0  0  0  0  0  0  0  0  0
    1.3700    2.3073   -1.1807 H   0  0  0  0  0  0  0  0  0  0  0  0
    2.4313    1.8875    0.1957 H   0  0  0  0  0  0  0  0  0  0  0  0
    2.9165   -0.0005   -0.8681 H   0  0  0  0  0  0  0  0  0  0  0  0
    1.3422   -1.7850   -1.2417 H   0  0  0  0  0  0  0  0  0  0  0  0
   -0.4163   -0.2949   -2.2482 H   0  0  0  0  0  0  0  0  0  0  0  0
   -1.0625   -2.4748   -0.5377 H   0  0  0  0  0  0  0  0  0  0  0  0
   -2.1652   -1.6196   -1.6583 H   0  0  0  0  0  0  0  0  0  0  0  0
   -1.8685   -1.3059    1.2194 H   0  0  0  0  0  0  0  0  0  0  0  0
   -2.9857    0.9358   -0.2625 H   0  0  0  0  0  0  0  0  0  0  0  0
   -2.1588    0.9330    1.3243 H   0  0  0  0  0  0  0  0  0  0  0  0
   -1.0388    1.6333   -1.1917 H   0  0  0  0  0  0  0  0  0  0  0  0
  1  2  1  0
  2  3  1  0
  3  4  1  0
  4  5  1  0
  5  6  1  0
  6  7  1  0
  7  8  1  0
  8  9  1  0
  9 10  1  0
 10 11  1  0
  6  1  1  0
 11  7  1  0
 11  3  1  0
  1 12  1  0
  1 13  1  0
  2 14  1  0
  2 15  1  0
  3 16  1  0
  4 17  1  0
  4 18  1  0
  5 19  1  0
  6 20  1  0
  7 21  1  6
  8 22  1  0
  8 23  1  0
  9 24  1  0
 10 25  1  0
 10 26  1  0
 11 27  1  6
M  END
