
     RDKit          3D

 26 27  0  0  0  0  0  0  0  0999 V2000
   -2.3684   -0.9186   -0.0114 C   0  0  0  0  0  0  0  0  0  0  0  0
   -2.4460    0.5623    0.3537 C   0  0  0  0  0  0  0  0  0  0  0  0
   -1.1037    1.1835   -0.0252 C   0  0  0  0  0  0  0  0  0  0  0  0
   -0.1298    0.0115   -0.2381 C   0  0  0  0  0  0  0  0  0  0  0  0
   -1.0409   -1.1188   -0.7299 C   0  0  0  0  0  0  0  0  0  0  0  0
    0.9603    0.3673   -1.2978 C   0  0  0  0  0  0  0  0  0  0  0  0
    2.1810   -0.4147   -1.0731 N   0  0  0  0  0  0  0  0  0  0  0  0
    2.7954   -0.0887    0.2265 C   0  0  0  0  0  0  0  0  0  0  0  0
    1.7582    0.2680    1.3092 C   0  0  0  0  0  0  0  0  0  0  0  0
    0.4893   -0.4165    1.0435 N   0  0  0  0  0  0  0  0  0  0  0  0
   -2.3890   -1.5362    0.9137 H   0  0  0  0  0  0  0  0  0  0  0  0
   -3.2199   -1.2178   -0.6609 H   0  0  0  0  0  0  0  0  0  0  0  0
   -2.6262    0.6764    1.4452 H   0  0  0  0  0  0  0  0  0  0  0  0
   -3.2736    1.0602   -0.1977 H   0  0  0  0  0  0  0  0  0  0  0  0
   -1.2327    1.7547   -0.9722 H   0  0  0  0  0  0  0  0  0  0  0  0
   -0.7479    1.8862    0.7592 H   0  0  0  0  0  0  0  0  0  0  0  0
   -1.2231   -1.0404   -1.8248 H   0  0  0  0  0  0  0  0  0  0  0  0
   -0.6121   -2.1225   -0.5154 H   0  0  0  0  0  0  0  0  0  0  0  0
    1.2150    1.4501   -1.2405 H   0  0  0  0  0  0  0  0  0  0  0  0
    0.5992    0.1942   -2.3342 H   0  0  0  0  0  0  0  0  0  0  0  0
    1.9319   -1.4322   -1.0858 H   0  0  0  0  0  0  0  0  0  0  0  0
    3.4006   -0.9565    0.5707 H   0  0  0  0  0  0  0  0  0  0  0  0
    3.4943    0.7649    0.0943 H   0  0  0  0  0  0  0  0  0  0  0  0
    1.5999    1.3694    1.3366 H   0  0  0  0  0  0  0  0  0  0  0  0
    2.1456   -0.0398    2.3046 H   0  0  0  0  0  0  0  0  0  0  0  0
   -0.1573   -0.2461    1.8497 H   0  0  0  0  0  0  0  0  0  0  0  0
  1  2  1  0
  2  3  1  0
  3  4  1  0
  4  5  1  0
  4  6  1  0
  6  7  1  0
  7  8  1  0
  8  9  1  0
  9 10  1  0
  5  1  1  0
 10  4  1  0
  1 11  1  0
  1 12  1  0
  2 13  1  0
  2 14  1  0
  3 15  1  0
  3 16  1  0
  5 17  1  0
  5 18  1  0
  6 19  1  0
  6 20  1  0
  7 21  1  0
  8 22  1  0
  8 23  1  0
  9 24  1  0
  9 25  1  0
 10 26  1  0
M  END
