
     RDKit          3D

 23 24  0  0  0  0  0  0  0  0999 V2000
   -1.5581   -0.9299    0.9016 C   0  0  0  0  0  0  0  0  0  0  0  0
   -0.2054   -0.3380    1.3233 C   0  0  0  0  0  0  0  0  0  0  0  0
    0.5424    0.2298    0.0944 C   0  0  0  0  0  0  0  0  0  0  0  0
   -0.3540    1.1923   -0.7073 C   0  0  0  0  0  0  0  0  0  0  0  0
   -1.7011    0.5301   -1.0329 C   0  0  0  0  0  0  0  0  0  0  0  0
   -2.3777    0.0583    0.1846 N   0  0  0  0  0  0  0  0  0  0  0  0
    1.2233   -0.8370   -0.7641 C   0  0  0  0  0  0  0  0  0  0  0  0
    2.5084   -0.1281   -0.3806 C   0  0  0  0  0  0  0  0  0  0  0  0
    1.8186    0.8716    0.4386 N   0  0  0  0  0  0  0  0  0  0  0  0
   -1.4007   -1.8260    0.2617 H   0  0  0  0  0  0  0  0  0  0  0  0
   -2.1051   -1.2645    1.8092 H   0  0  0  0  0  0  0  0  0  0  0  0
    0.4016   -1.1205    1.8292 H   0  0  0  0  0  0  0  0  0  0  0  0
   -0.3815    0.4797    2.0563 H   0  0  0  0  0  0  0  0  0  0  0  0
    0.1464    1.5050   -1.6500 H   0  0  0  0  0  0  0  0  0  0  0  0
   -0.5370    2.1089   -0.1048 H   0  0  0  0  0  0  0  0  0  0  0  0
   -2.3525    1.2698   -1.5460 H   0  0  0  0  0  0  0  0  0  0  0  0
   -1.5506   -0.3195   -1.7347 H   0  0  0  0  0  0  0  0  0  0  0  0
   -2.5559    0.8760    0.8147 H   0  0  0  0  0  0  0  0  0  0  0  0
    1.1694   -1.8672   -0.3492 H   0  0  0  0  0  0  0  0  0  0  0  0
    1.0071   -0.7658   -1.8525 H   0  0  0  0  0  0  0  0  0  0  0  0
    3.0065    0.3495   -1.2525 H   0  0  0  0  0  0  0  0  0  0  0  0
    3.1922   -0.7724    0.2184 H   0  0  0  0  0  0  0  0  0  0  0  0
    2.0638    0.6977    1.4426 H   0  0  0  0  0  0  0  0  0  0  0  0
  1  2  1  0
  2  3  1  0
  3  4  1  0
  4  5  1  0
  5  6  1  0
  3  7  1  0
  7  8  1  0
  8  9  1  0
  6  1  1  0
  9  3  1  0
  1 10  1  0
  1 11  1  0
  2 12  1  0
  2 13  1  0
  4 14  1  0
  4 15  1  0
  5 16  1  0
  5 17  1  0
  6 18  1  0
  7 19  1  0
  7 20  1  0
  8 21  1  0
  8 22  1  0
  9 23  1  0
M  END
