
     RDKit          3D

 14 15  0  0  0  0  0  0  0  0999 V2000
    1.3364   -0.4978   -0.7022 C   0  0  0  0  0  0  0  0  0  0  0  0
    1.1551    0.5389    0.3962 C   0  0  0  0  0  0  0  0  0  0  0  0
   -0.0539   -0.1914   -0.1905 C   0  0  0  0  0  0  0  0  0  0  0  0
   -0.9665   -0.7598    0.8347 C   0  0  0  0  0  0  0  0  0  0  0  0
   -1.9963    0.1276    0.4114 O   0  0  0  0  0  0  0  0  0  0  0  0
   -1.1654    0.7112   -0.5868 C   0  0  0  0  0  0  0  0  0  0  0  0
    1.7181   -1.4847   -0.3661 H   0  0  0  0  0  0  0  0  0  0  0  0
    1.5292   -0.0877   -1.7157 H   0  0  0  0  0  0  0  0  0  0  0  0
    1.3563    1.5683    0.0289 H   0  0  0  0  0  0  0  0  0  0  0  0
    1.5443    0.1777    1.3724 H   0  0  0  0  0  0  0  0  0  0  0  0
   -0.6790   -0.5664    1.8920 H   0  0  0  0  0  0  0  0  0  0  0  0
   -1.2343   -1.8167    0.6204 H   0  0  0  0  0  0  0  0  0  0  0  0
   -0.9980    1.7930   -0.3881 H   0  0  0  0  0  0  0  0  0  0  0  0
   -1.5459    0.4878   -1.6065 H   0  0  0  0  0  0  0  0  0  0  0  0
  1  2  1  0
  2  3  1  0
  3  4  1  0
  4  5  1  0
  5  6  1  0
  3  1  1  0
  6  3  1  0
  1  7  1  0
  1  8  1  0
  2  9  1  0
  2 10  1  0
  4 11  1  0
  4 12  1  0
  6 13  1  0
  6 14  1  0
M  END
