
     RDKit          3D

 27 29  0  0  0  0  0  0  0  0999 V2000
   -1.8666   -0.1217    0.9795 C   0  0  0  0  0  0  0  0  0  0  0  0
   -1.6309    1.2199    0.2027 C   0  0  0  0  0  0  0  0  0  0  0  0
   -0.6708    0.9598   -1.0018 C   0  0  0  0  0  0  0  0  0  0  0  0
   -1.2156   -0.2098   -1.7429 N   0  0  0  0  0  0  0  0  0  0  0  0
   -1.0907   -1.4670   -0.9357 C   0  0  0  0  0  0  0  0  0  0  0  0
   -0.7718   -1.1504    0.5619 C   0  0  0  0  0  0  0  0  0  0  0  0
    0.5672   -0.3590    0.6972 C   0  0  0  0  0  0  0  0  0  0  0  0
    1.9745   -0.8720    0.8615 C   0  0  0  0  0  0  0  0  0  0  0  0
    2.8187    0.3167    0.5592 N   0  0  0  0  0  0  0  0  0  0  0  0
    1.9475    1.3082   -0.1289 C   0  0  0  0  0  0  0  0  0  0  0  0
    0.7377    0.5031   -0.5247 C   0  0  0  0  0  0  0  0  0  0  0  0
   -1.8290    0.0625    2.0755 H   0  0  0  0  0  0  0  0  0  0  0  0
   -2.8794   -0.5227    0.7528 H   0  0  0  0  0  0  0  0  0  0  0  0
   -2.6015    1.6181   -0.1641 H   0  0  0  0  0  0  0  0  0  0  0  0
   -1.1837    1.9833    0.8759 H   0  0  0  0  0  0  0  0  0  0  0  0
   -0.5991    1.8451   -1.6687 H   0  0  0  0  0  0  0  0  0  0  0  0
   -2.2232   -0.0399   -1.9740 H   0  0  0  0  0  0  0  0  0  0  0  0
   -0.2798   -2.0966   -1.3603 H   0  0  0  0  0  0  0  0  0  0  0  0
   -2.0306   -2.0591   -1.0027 H   0  0  0  0  0  0  0  0  0  0  0  0
   -0.7899   -2.0585    1.2012 H   0  0  0  0  0  0  0  0  0  0  0  0
    0.4518    0.2858    1.6074 H   0  0  0  0  0  0  0  0  0  0  0  0
    2.1766   -1.7049    0.1491 H   0  0  0  0  0  0  0  0  0  0  0  0
    2.1580   -1.2202    1.9007 H   0  0  0  0  0  0  0  0  0  0  0  0
    3.5746    0.0209   -0.1025 H   0  0  0  0  0  0  0  0  0  0  0  0
    1.6690    2.1227    0.5751 H   0  0  0  0  0  0  0  0  0  0  0  0
    2.4528    1.7469   -1.0185 H   0  0  0  0  0  0  0  0  0  0  0  0
    1.1343   -0.1112   -1.3749 H   0  0  0  0  0  0  0  0  0  0  0  0
  1  2  1  0
  2  3  1  0
  3  4  1  0
  4  5  1  0
  5  6  1  0
  6  7  1  0
  7  8  1  0
  8  9  1  0
  9 10  1  0
 10 11  1  0
  6  1  1  0
 11  7  1  0
 11  3  1  0
  1 12  1  0
  1 13  1  0
  2 14  1  0
  2 15  1  0
  3 16  1  0
  4 17  1  0
  5 18  1  0
  5 19  1  0
  6 20  1  0
  7 21  1  0
  8 22  1  0
  8 23  1  0
  9 24  1  0
 10 25  1  0
 10 26  1  0
 11 27  1  0
M  END
