
     RDKit          3D

 16 16  0  0  0  0  0  0  0  0999 V2000
   -0.1794    1.1848   -0.3463 C   0  0  0  0  0  0  0  0  0  0  0  0
    1.2060    0.6606    0.0375 C   0  0  0  0  0  0  0  0  0  0  0  0
    1.2564   -0.8630   -0.1343 C   0  0  0  0  0  0  0  0  0  0  0  0
    0.2537   -1.4927    0.6427 O   0  0  0  0  0  0  0  0  0  0  0  0
   -1.0290   -1.1191    0.1731 C   0  0  0  0  0  0  0  0  0  0  0  0
   -1.2682    0.3833    0.3702 C   0  0  0  0  0  0  0  0  0  0  0  0
   -0.3173    1.0950   -1.4465 H   0  0  0  0  0  0  0  0  0  0  0  0
   -0.2631    2.2588   -0.0737 H   0  0  0  0  0  0  0  0  0  0  0  0
    1.4220    0.9196    1.0972 H   0  0  0  0  0  0  0  0  0  0  0  0
    1.9777    1.1370   -0.6046 H   0  0  0  0  0  0  0  0  0  0  0  0
    1.1659   -1.1411   -1.2094 H   0  0  0  0  0  0  0  0  0  0  0  0
    2.2474   -1.2247    0.2120 H   0  0  0  0  0  0  0  0  0  0  0  0
   -1.1639   -1.4023   -0.8961 H   0  0  0  0  0  0  0  0  0  0  0  0
   -1.7920   -1.6774    0.7553 H   0  0  0  0  0  0  0  0  0  0  0  0
   -1.2511    0.6200    1.4567 H   0  0  0  0  0  0  0  0  0  0  0  0
   -2.2651    0.6614   -0.0340 H   0  0  0  0  0  0  0  0  0  0  0  0
  1  2  1  0
  2  3  1  0
  3  4  1  0
  4  5  1  0
  5  6  1  0
  6  1  1  0
  1  7  1  0
  1  8  1  0
  2  9  1  0
  2 10  1  0
  3 11  1  0
  3 12  1  0
  5 13  1  0
  5 14  1  0
  6 15  1  0
  6 16  1  0
M  END
