
     RDKit          3D

 15 16  0  0  0  0  0  0  0  0999 V2000
   -1.6517    0.1583   -0.0364 C   0  0  0  0  0  0  0  0  0  0  0  0
   -0.7180   -1.0379   -0.3143 C   0  0  0  0  0  0  0  0  0  0  0  0
    0.4224   -0.0751   -0.1520 C   0  0  0  0  0  0  0  0  0  0  0  0
   -0.4554    1.1180    0.1268 C   0  0  0  0  0  0  0  0  0  0  0  0
    1.8491   -0.2429   -0.3762 C   0  0  0  0  0  0  0  0  0  0  0  0
    1.3014   -0.4455    0.9810 N   0  0  0  0  0  0  0  0  0  0  0  0
   -2.2852    0.4150   -0.9138 H   0  0  0  0  0  0  0  0  0  0  0  0
   -2.2269    0.0346    0.9074 H   0  0  0  0  0  0  0  0  0  0  0  0
   -0.8025   -1.4143   -1.3562 H   0  0  0  0  0  0  0  0  0  0  0  0
   -0.7722   -1.8200    0.4748 H   0  0  0  0  0  0  0  0  0  0  0  0
   -0.4011    1.8741   -0.6853 H   0  0  0  0  0  0  0  0  0  0  0  0
   -0.3816    1.5308    1.1566 H   0  0  0  0  0  0  0  0  0  0  0  0
    2.1375   -1.1990   -0.8601 H   0  0  0  0  0  0  0  0  0  0  0  0
    2.4228    0.7029   -0.4912 H   0  0  0  0  0  0  0  0  0  0  0  0
    1.5612    0.4010    1.5391 H   0  0  0  0  0  0  0  0  0  0  0  0
  1  2  1  0
  2  3  1  0
  3  4  1  0
  3  5  1  0
  5  6  1  0
  4  1  1  0
  6  3  1  0
  1  7  1  0
  1  8  1  0
  2  9  1  0
  2 10  1  0
  4 11  1  0
  4 12  1  0
  5 13  1  0
  5 14  1  0
  6 15  1  0
M  END
