
     RDKit          3D

 16 16  0  0  0  0  0  0  0  0999 V2000
   -1.0544    0.9569    0.1475 C   0  0  0  0  0  0  0  0  0  0  0  0
   -1.3213   -0.5208   -0.1802 C   0  0  0  0  0  0  0  0  0  0  0  0
   -0.2584   -1.3809    0.3552 N   0  0  0  0  0  0  0  0  0  0  0  0
    1.0544   -0.9569   -0.1475 C   0  0  0  0  0  0  0  0  0  0  0  0
    1.3213    0.5208    0.1802 C   0  0  0  0  0  0  0  0  0  0  0  0
    0.2584    1.3809   -0.3552 N   0  0  0  0  0  0  0  0  0  0  0  0
   -1.1051    1.1161    1.2472 H   0  0  0  0  0  0  0  0  0  0  0  0
   -1.8451    1.5835   -0.3186 H   0  0  0  0  0  0  0  0  0  0  0  0
   -1.3958   -0.6569   -1.2816 H   0  0  0  0  0  0  0  0  0  0  0  0
   -2.2950   -0.8234    0.2616 H   0  0  0  0  0  0  0  0  0  0  0  0
   -0.2591   -1.3066    1.4002 H   0  0  0  0  0  0  0  0  0  0  0  0
    1.8451   -1.5835    0.3186 H   0  0  0  0  0  0  0  0  0  0  0  0
    1.1051   -1.1161   -1.2472 H   0  0  0  0  0  0  0  0  0  0  0  0
    2.2950    0.8234   -0.2616 H   0  0  0  0  0  0  0  0  0  0  0  0
    1.3958    0.6569    1.2816 H   0  0  0  0  0  0  0  0  0  0  0  0
    0.2591    1.3066   -1.4002 H   0  0  0  0  0  0  0  0  0  0  0  0
  1  2  1  0
  2  3  1  0
  3  4  1  0
  4  5  1  0
  5  6  1  0
  6  1  1  0
  1  7  1  0
  1  8  1  0
  2  9  1  0
  2 10  1  0
  3 11  1  0
  4 12  1  0
  4 13  1  0
  5 14  1  0
  5 15  1  0
  6 16  1  0
M  END
