
     RDKit          3D

 20 21  0  0  0  0  0  0  0  0999 V2000
    1.8783    0.5688    0.2043 C   0  0  0  0  0  0  0  0  0  0  0  0
    1.7328   -0.5659   -0.8153 C   0  0  0  0  0  0  0  0  0  0  0  0
    0.3657   -1.0930   -0.7521 N   0  0  0  0  0  0  0  0  0  0  0  0
   -0.3911   -0.0992    0.0046 C   0  0  0  0  0  0  0  0  0  0  0  0
    0.5517    0.6502    0.9295 C   0  0  0  0  0  0  0  0  0  0  0  0
   -1.6970   -0.6021    0.6040 C   0  0  0  0  0  0  0  0  0  0  0  0
   -2.5121    0.2340   -0.2818 N   0  0  0  0  0  0  0  0  0  0  0  0
   -1.2831    0.7552   -0.8863 C   0  0  0  0  0  0  0  0  0  0  0  0
    2.7069    0.3645    0.9171 H   0  0  0  0  0  0  0  0  0  0  0  0
    2.0809    1.5276   -0.3220 H   0  0  0  0  0  0  0  0  0  0  0  0
    2.4744   -1.3704   -0.6080 H   0  0  0  0  0  0  0  0  0  0  0  0
    1.9236   -0.1800   -1.8400 H   0  0  0  0  0  0  0  0  0  0  0  0
    0.3971   -1.9745   -0.1864 H   0  0  0  0  0  0  0  0  0  0  0  0
    0.6280    0.1118    1.8998 H   0  0  0  0  0  0  0  0  0  0  0  0
    0.2444    1.7021    1.1164 H   0  0  0  0  0  0  0  0  0  0  0  0
   -1.8783   -1.6894    0.4405 H   0  0  0  0  0  0  0  0  0  0  0  0
   -1.8388   -0.2995    1.6647 H   0  0  0  0  0  0  0  0  0  0  0  0
   -2.9867   -0.3873   -0.9796 H   0  0  0  0  0  0  0  0  0  0  0  0
   -1.1918    1.8482   -0.7048 H   0  0  0  0  0  0  0  0  0  0  0  0
   -1.2047    0.4990   -1.9685 H   0  0  0  0  0  0  0  0  0  0  0  0
  1  2  1  0
  2  3  1  0
  3  4  1  0
  4  5  1  0
  4  6  1  0
  6  7  1  0
  7  8  1  0
  5  1  1  0
  8  4  1  0
  1  9  1  0
  1 10  1  0
  2 11  1  0
  2 12  1  0
  3 13  1  0
  5 14  1  0
  5 15  1  0
  6 16  1  0
  6 17  1  0
  7 18  1  0
  8 19  1  0
  8 20  1  0
M  END
