
     RDKit          3D

 20 21  0  0  0  0  0  0  0  0999 V2000
    2.0793   -0.0716    0.3601 C   0  0  0  0  0  0  0  0  0  0  0  0
    1.3966   -0.6581   -0.8878 C   0  0  0  0  0  0  0  0  0  0  0  0
    0.0733   -1.1943   -0.5528 N   0  0  0  0  0  0  0  0  0  0  0  0
   -0.7209   -0.1452    0.1036 C   0  0  0  0  0  0  0  0  0  0  0  0
   -1.6961    0.6327   -0.7702 C   0  0  0  0  0  0  0  0  0  0  0  0
   -2.2101   -0.4318    0.2012 C   0  0  0  0  0  0  0  0  0  0  0  0
   -0.0638    0.5625    1.2973 C   0  0  0  0  0  0  0  0  0  0  0  0
    1.2840    1.0226    0.9385 N   0  0  0  0  0  0  0  0  0  0  0  0
    2.2299   -0.8708    1.1191 H   0  0  0  0  0  0  0  0  0  0  0  0
    3.0815    0.3168    0.0780 H   0  0  0  0  0  0  0  0  0  0  0  0
    1.3077    0.1256   -1.6742 H   0  0  0  0  0  0  0  0  0  0  0  0
    2.0285   -1.4782   -1.2914 H   0  0  0  0  0  0  0  0  0  0  0  0
   -0.3803   -1.5089   -1.4429 H   0  0  0  0  0  0  0  0  0  0  0  0
   -1.7481    0.3281   -1.8368 H   0  0  0  0  0  0  0  0  0  0  0  0
   -1.9088    1.6731   -0.4447 H   0  0  0  0  0  0  0  0  0  0  0  0
   -2.7248   -0.0101    1.0908 H   0  0  0  0  0  0  0  0  0  0  0  0
   -2.5569   -1.3614   -0.2983 H   0  0  0  0  0  0  0  0  0  0  0  0
   -0.6713    1.4308    1.6345 H   0  0  0  0  0  0  0  0  0  0  0  0
    0.0036   -0.1486    2.1490 H   0  0  0  0  0  0  0  0  0  0  0  0
    1.1969    1.7866    0.2269 H   0  0  0  0  0  0  0  0  0  0  0  0
  1  2  1  0
  2  3  1  0
  3  4  1  0
  4  5  1  0
  5  6  1  0
  4  7  1  0
  7  8  1  0
  8  1  1  0
  6  4  1  0
  1  9  1  0
  1 10  1  0
  2 11  1  0
  2 12  1  0
  3 13  1  0
  5 14  1  0
  5 15  1  0
  6 16  1  0
  6 17  1  0
  7 18  1  0
  7 19  1  0
  8 20  1  0
M  END
