
     RDKit          3D

 15 15  0  0  0  0  0  0  0  0999 V2000
   -1.1750   -0.5981    0.0059 C   0  0  0  0  0  0  0  0  0  0  0  0
    0.2203   -1.2160    0.0773 C   0  0  0  0  0  0  0  0  0  0  0  0
    1.1146   -0.3526    0.8552 N   0  0  0  0  0  0  0  0  0  0  0  0
    1.1257    1.0009    0.2839 C   0  0  0  0  0  0  0  0  0  0  0  0
   -0.1640    1.5797    0.3550 O   0  0  0  0  0  0  0  0  0  0  0  0
   -1.0580    0.8535   -0.4661 C   0  0  0  0  0  0  0  0  0  0  0  0
   -1.6439   -0.6225    1.0138 H   0  0  0  0  0  0  0  0  0  0  0  0
   -1.8112   -1.1767   -0.6979 H   0  0  0  0  0  0  0  0  0  0  0  0
    0.1539   -2.2115    0.5664 H   0  0  0  0  0  0  0  0  0  0  0  0
    0.6222   -1.3637   -0.9513 H   0  0  0  0  0  0  0  0  0  0  0  0
    2.0832   -0.7423    0.7784 H   0  0  0  0  0  0  0  0  0  0  0  0
    1.8188    1.6309    0.8801 H   0  0  0  0  0  0  0  0  0  0  0  0
    1.5129    0.9946   -0.7627 H   0  0  0  0  0  0  0  0  0  0  0  0
   -2.0594    1.3291   -0.4051 H   0  0  0  0  0  0  0  0  0  0  0  0
   -0.7401    0.8949   -1.5331 H   0  0  0  0  0  0  0  0  0  0  0  0
  1  2  1  0
  2  3  1  0
  3  4  1  0
  4  5  1  0
  5  6  1  0
  6  1  1  0
  1  7  1  0
  1  8  1  0
  2  9  1  0
  2 10  1  0
  3 11  1  0
  4 12  1  0
  4 13  1  0
  6 14  1  0
  6 15  1  0
M  END
