
     RDKit          3D

 23 24  0  0  0  0  0  0  0  0999 V2000
   -1.7809    0.8857   -0.1033 C   0  0  0  0  0  0  0  0  0  0  0  0
   -2.3088   -0.5567    0.0852 C   0  0  0  0  0  0  0  0  0  0  0  0
   -1.2479   -1.5842    0.1215 N   0  0  0  0  0  0  0  0  0  0  0  0
   -0.0320   -1.0980    0.7851 C   0  0  0  0  0  0  0  0  0  0  0  0
    0.6054    0.0680   -0.0180 C   0  0  0  0  0  0  0  0  0  0  0  0
   -0.4286    0.9003   -0.8159 C   0  0  0  0  0  0  0  0  0  0  0  0
    1.8333   -0.3182   -0.8430 C   0  0  0  0  0  0  0  0  0  0  0  0
    2.7422    0.4785   -0.0173 N   0  0  0  0  0  0  0  0  0  0  0  0
    1.6007    0.8898    0.8019 C   0  0  0  0  0  0  0  0  0  0  0  0
   -2.5170    1.4808   -0.6859 H   0  0  0  0  0  0  0  0  0  0  0  0
   -1.6679    1.3719    0.8908 H   0  0  0  0  0  0  0  0  0  0  0  0
   -2.8942   -0.6088    1.0282 H   0  0  0  0  0  0  0  0  0  0  0  0
   -3.0122   -0.7955   -0.7429 H   0  0  0  0  0  0  0  0  0  0  0  0
   -1.0063   -1.8635   -0.8589 H   0  0  0  0  0  0  0  0  0  0  0  0
   -0.2975   -0.7523    1.8093 H   0  0  0  0  0  0  0  0  0  0  0  0
    0.6792   -1.9421    0.9133 H   0  0  0  0  0  0  0  0  0  0  0  0
   -0.0910    1.9491   -0.9619 H   0  0  0  0  0  0  0  0  0  0  0  0
   -0.5664    0.4567   -1.8268 H   0  0  0  0  0  0  0  0  0  0  0  0
    1.8163    0.0753   -1.8834 H   0  0  0  0  0  0  0  0  0  0  0  0
    2.0833   -1.4036   -0.8186 H   0  0  0  0  0  0  0  0  0  0  0  0
    3.3359   -0.1758    0.5462 H   0  0  0  0  0  0  0  0  0  0  0  0
    1.4481    1.9889    0.7347 H   0  0  0  0  0  0  0  0  0  0  0  0
    1.7063    0.5539    1.8596 H   0  0  0  0  0  0  0  0  0  0  0  0
  1  2  1  0
  2  3  1  0
  3  4  1  0
  4  5  1  0
  5  6  1  0
  5  7  1  0
  7  8  1  0
  8  9  1  0
  6  1  1  0
  9  5  1  0
  1 10  1  0
  1 11  1  0
  2 12  1  0
  2 13  1  0
  3 14  1  0
  4 15  1  0
  4 16  1  0
  6 17  1  0
  6 18  1  0
  7 19  1  0
  7 20  1  0
  8 21  1  0
  9 22  1  0
  9 23  1  0
M  END
