
     RDKit          3D

 14 14  0  0  0  0  0  0  0  0999 V2000
   -0.5246   -0.9808   -0.4941 C   0  0  0  0  0  0  0  0  0  0  0  0
   -1.2095    0.3316   -0.1036 C   0  0  0  0  0  0  0  0  0  0  0  0
   -0.2240    1.4113   -0.1882 N   0  0  0  0  0  0  0  0  0  0  0  0
    0.7713    1.1609    0.7117 O   0  0  0  0  0  0  0  0  0  0  0  0
    1.5252    0.0793    0.2035 C   0  0  0  0  0  0  0  0  0  0  0  0
    0.7315   -1.1569    0.2473 N   0  0  0  0  0  0  0  0  0  0  0  0
   -0.3083   -0.9764   -1.5850 H   0  0  0  0  0  0  0  0  0  0  0  0
   -1.2059   -1.8343   -0.2869 H   0  0  0  0  0  0  0  0  0  0  0  0
   -2.0499    0.5352   -0.8015 H   0  0  0  0  0  0  0  0  0  0  0  0
   -1.6126    0.2575    0.9316 H   0  0  0  0  0  0  0  0  0  0  0  0
   -0.6931    2.2940    0.1188 H   0  0  0  0  0  0  0  0  0  0  0  0
    2.4306   -0.0497    0.8335 H   0  0  0  0  0  0  0  0  0  0  0  0
    1.8743    0.2823   -0.8356 H   0  0  0  0  0  0  0  0  0  0  0  0
    0.4950   -1.3539    1.2486 H   0  0  0  0  0  0  0  0  0  0  0  0
  1  2  1  0
  2  3  1  0
  3  4  1  0
  4  5  1  0
  5  6  1  0
  6  1  1  0
  1  7  1  0
  1  8  1  0
  2  9  1  0
  2 10  1  0
  3 11  1  0
  5 12  1  0
  5 13  1  0
  6 14  1  0
M  END
