
     RDKit          3D

 16 16  0  0  0  0  0  0  0  0999 V2000
   -0.9724    0.8040    0.3316 C   0  0  0  0  0  0  0  0  0  0  0  0
    0.2903    1.2927   -0.3833 C   0  0  0  0  0  0  0  0  0  0  0  0
    1.4425    0.4415   -0.0622 N   0  0  0  0  0  0  0  0  0  0  0  0
    1.1630   -0.9625   -0.4005 C   0  0  0  0  0  0  0  0  0  0  0  0
   -0.0031   -1.4716    0.3377 N   0  0  0  0  0  0  0  0  0  0  0  0
   -1.1999   -0.6794    0.0289 C   0  0  0  0  0  0  0  0  0  0  0  0
   -1.8491    1.3951   -0.0099 H   0  0  0  0  0  0  0  0  0  0  0  0
   -0.8590    0.9476    1.4284 H   0  0  0  0  0  0  0  0  0  0  0  0
    0.1244    1.3008   -1.4834 H   0  0  0  0  0  0  0  0  0  0  0  0
    0.5069    2.3370   -0.0709 H   0  0  0  0  0  0  0  0  0  0  0  0
    1.6386    0.5098    0.9645 H   0  0  0  0  0  0  0  0  0  0  0  0
    0.9998   -1.0682   -1.4964 H   0  0  0  0  0  0  0  0  0  0  0  0
    2.0508   -1.5798   -0.1444 H   0  0  0  0  0  0  0  0  0  0  0  0
    0.1913   -1.4056    1.3648 H   0  0  0  0  0  0  0  0  0  0  0  0
   -1.4712   -0.8110   -1.0420 H   0  0  0  0  0  0  0  0  0  0  0  0
   -2.0528   -1.0506    0.6372 H   0  0  0  0  0  0  0  0  0  0  0  0
  1  2  1  0
  2  3  1  0
  3  4  1  0
  4  5  1  0
  5  6  1  0
  6  1  1  0
  1  7  1  0
  1  8  1  0
  2  9  1  0
  2 10  1  0
  3 11  1  0
  4 12  1  0
  4 13  1  0
  5 14  1  0
  6 15  1  0
  6 16  1  0
M  END
