
     RDKit          3D

 21 22  0  0  0  0  0  0  0  0999 V2000
   -2.2582   -0.2155    0.2007 C   0  0  0  0  0  0  0  0  0  0  0  0
   -1.3115    0.3888    1.2446 C   0  0  0  0  0  0  0  0  0  0  0  0
    0.0176   -0.2114    1.1200 N   0  0  0  0  0  0  0  0  0  0  0  0
    0.5789    0.0678   -0.2249 C   0  0  0  0  0  0  0  0  0  0  0  0
    1.7437   -0.8402   -0.5800 C   0  0  0  0  0  0  0  0  0  0  0  0
    2.7045    0.2658   -0.5961 N   0  0  0  0  0  0  0  0  0  0  0  0
    1.6139    1.1857   -0.2658 C   0  0  0  0  0  0  0  0  0  0  0  0
   -0.3773    0.1873   -1.2737 O   0  0  0  0  0  0  0  0  0  0  0  0
   -1.4740   -0.6704   -1.0383 C   0  0  0  0  0  0  0  0  0  0  0  0
   -2.7924   -1.0894    0.6330 H   0  0  0  0  0  0  0  0  0  0  0  0
   -3.0162    0.5447   -0.0887 H   0  0  0  0  0  0  0  0  0  0  0  0
   -1.2434    1.4917    1.1035 H   0  0  0  0  0  0  0  0  0  0  0  0
   -1.7133    0.1991    2.2636 H   0  0  0  0  0  0  0  0  0  0  0  0
    0.6319    0.1703    1.8766 H   0  0  0  0  0  0  0  0  0  0  0  0
    1.6474   -1.2930   -1.5913 H   0  0  0  0  0  0  0  0  0  0  0  0
    1.9771   -1.5928    0.2083 H   0  0  0  0  0  0  0  0  0  0  0  0
    3.3259    0.1757    0.2429 H   0  0  0  0  0  0  0  0  0  0  0  0
    1.4415    1.9009   -1.1000 H   0  0  0  0  0  0  0  0  0  0  0  0
    1.7772    1.7067    0.7050 H   0  0  0  0  0  0  0  0  0  0  0  0
   -2.1444   -0.6486   -1.9232 H   0  0  0  0  0  0  0  0  0  0  0  0
   -1.1286   -1.7232   -0.9160 H   0  0  0  0  0  0  0  0  0  0  0  0
  1  2  1  0
  2  3  1  0
  3  4  1  0
  4  5  1  0
  5  6  1  0
  6  7  1  0
  4  8  1  0
  8  9  1  0
  9  1  1  0
  7  4  1  0
  1 10  1  0
  1 11  1  0
  2 12  1  0
  2 13  1  0
  3 14  1  0
  5 15  1  0
  5 16  1  0
  6 17  1  0
  7 18  1  0
  7 19  1  0
  9 20  1  0
  9 21  1  0
M  END
