
     RDKit          3D

  8  8  0  0  0  0  0  0  0  0999 V2000
    0.0291    0.7398   -0.0260 C   0  0  0  0  0  0  0  0  0  0  0  0
    1.0798   -0.1507   -0.0330 C   0  0  0  0  0  0  0  0  0  0  0  0
    0.5969   -1.4058    0.0263 N   0  0  0  0  0  0  0  0  0  0  0  0
   -0.7005   -1.3128    0.0690 O   0  0  0  0  0  0  0  0  0  0  0  0
   -1.0898   -0.0598    0.0405 C   0  0  0  0  0  0  0  0  0  0  0  0
    0.0728    1.8199   -0.0639 H   0  0  0  0  0  0  0  0  0  0  0  0
    2.1312    0.0989   -0.0786 H   0  0  0  0  0  0  0  0  0  0  0  0
   -2.1195    0.2704    0.0657 H   0  0  0  0  0  0  0  0  0  0  0  0
  1  2  1  0
  2  3  2  0
  3  4  1  0
  4  5  1  0
  5  1  2  0
  1  6  1  0
  2  7  1  0
  5  8  1  0
M  END
