
     RDKit          3D

 26 27  0  0  0  0  0  0  0  0999 V2000
    2.5399    0.2495   -0.0372 C   0  0  0  0  0  0  0  0  0  0  0  0
    2.1156   -1.0827   -0.6941 C   0  0  0  0  0  0  0  0  0  0  0  0
    0.6567   -1.3246   -0.6714 N   0  0  0  0  0  0  0  0  0  0  0  0
   -0.0021   -0.6269    0.4442 C   0  0  2  0  0  0  0  0  0  0  0  0
   -1.4511   -1.1149    0.6441 C   0  0  0  0  0  0  0  0  0  0  0  0
   -2.3868   -0.5765   -0.4339 C   0  0  0  0  0  0  0  0  0  0  0  0
   -2.2756    0.9431   -0.4942 C   0  0  0  0  0  0  0  0  0  0  0  0
   -0.9039    1.3299   -0.8346 N   0  0  0  0  0  0  0  0  0  0  0  0
    0.0638    0.9080    0.1981 C   0  0  2  0  0  0  0  0  0  0  0  0
    1.4859    1.3393   -0.2544 C   0  0  0  0  0  0  0  0  0  0  0  0
    3.5133    0.5805   -0.4598 H   0  0  0  0  0  0  0  0  0  0  0  0
    2.6878    0.0984    1.0546 H   0  0  0  0  0  0  0  0  0  0  0  0
    2.6518   -1.9152   -0.1852 H   0  0  0  0  0  0  0  0  0  0  0  0
    2.4458   -1.0773   -1.7548 H   0  0  0  0  0  0  0  0  0  0  0  0
    0.5086   -2.3563   -0.5696 H   0  0  0  0  0  0  0  0  0  0  0  0
    0.5342   -0.8658    1.3923 H   0  0  0  0  0  0  0  0  0  0  0  0
   -1.8135   -0.7700    1.6381 H   0  0  0  0  0  0  0  0  0  0  0  0
   -1.4898   -2.2256    0.6505 H   0  0  0  0  0  0  0  0  0  0  0  0
   -2.1202   -1.0140   -1.4209 H   0  0  0  0  0  0  0  0  0  0  0  0
   -3.4333   -0.8639   -0.1942 H   0  0  0  0  0  0  0  0  0  0  0  0
   -2.9651    1.3196   -1.2805 H   0  0  0  0  0  0  0  0  0  0  0  0
   -2.5828    1.3961    0.4760 H   0  0  0  0  0  0  0  0  0  0  0  0
   -0.8839    2.3758   -0.8904 H   0  0  0  0  0  0  0  0  0  0  0  0
   -0.1723    1.4219    1.1590 H   0  0  0  0  0  0  0  0  0  0  0  0
    1.4872    1.5955   -1.3377 H   0  0  0  0  0  0  0  0  0  0  0  0
    1.7898    2.2561    0.2960 H   0  0  0  0  0  0  0  0  0  0  0  0
  1  2  1  0
  2  3  1  0
  3  4  1  0
  4  5  1  0
  5  6  1  0
  6  7  1  0
  7  8  1  0
  8  9  1  0
  9 10  1  0
 10  1  1  0
  9  4  1  0
  1 11  1  0
  1 12  1  0
  2 13  1  0
  2 14  1  0
  3 15  1  0
  4 16  1  1
  5 17  1  0
  5 18  1  0
  6 19  1  0
  6 20  1  0
  7 21  1  0
  7 22  1  0
  8 23  1  0
  9 24  1  1
 10 25  1  0
 10 26  1  0
M  END
