
     RDKit          3D

 17 18  0  0  0  0  0  0  0  0999 V2000
   -1.4072    0.6785   -0.0402 C   0  0  0  0  0  0  0  0  0  0  0  0
   -1.3631   -0.8410    0.0211 C   0  0  0  0  0  0  0  0  0  0  0  0
   -0.1539   -1.2457    0.7302 N   0  0  0  0  0  0  0  0  0  0  0  0
    1.0453   -0.8137    0.0038 C   0  0  2  0  0  0  0  0  0  0  0  0
    1.6226    0.4702    0.5999 C   0  0  0  0  0  0  0  0  0  0  0  0
    0.9818    0.5019   -0.7817 C   0  0  2  0  0  0  0  0  0  0  0  0
   -0.3123    1.2121   -0.8621 N   0  0  0  0  0  0  0  0  0  0  0  0
   -2.3738    0.9937   -0.4876 H   0  0  0  0  0  0  0  0  0  0  0  0
   -1.3581    1.0973    0.9900 H   0  0  0  0  0  0  0  0  0  0  0  0
   -2.2528   -1.2072    0.5778 H   0  0  0  0  0  0  0  0  0  0  0  0
   -1.3871   -1.2751   -1.0047 H   0  0  0  0  0  0  0  0  0  0  0  0
   -0.1421   -2.2913    0.7638 H   0  0  0  0  0  0  0  0  0  0  0  0
    1.8104   -1.5734   -0.2671 H   0  0  0  0  0  0  0  0  0  0  0  0
    1.0285    0.9358    1.4151 H   0  0  0  0  0  0  0  0  0  0  0  0
    2.7317    0.5200    0.5814 H   0  0  0  0  0  0  0  0  0  0  0  0
    1.6858    0.6228   -1.6315 H   0  0  0  0  0  0  0  0  0  0  0  0
   -0.1558    2.2151   -0.6081 H   0  0  0  0  0  0  0  0  0  0  0  0
  1  2  1  0
  2  3  1  0
  3  4  1  0
  4  5  1  0
  5  6  1  0
  6  7  1  0
  7  1  1  0
  6  4  1  0
  1  8  1  0
  1  9  1  0
  2 10  1  0
  2 11  1  0
  3 12  1  0
  4 13  1  6
  5 14  1  0
  5 15  1  0
  6 16  1  6
  7 17  1  0
M  END
