
     RDKit          3D

 26 27  0  0  0  0  0  0  0  0999 V2000
    1.7796   -1.3413   -0.2400 C   0  0  0  0  0  0  0  0  0  0  0  0
    2.7262   -0.1203   -0.2311 C   0  0  0  0  0  0  0  0  0  0  0  0
    2.0045    1.1665   -0.2217 N   0  0  0  0  0  0  0  0  0  0  0  0
    0.8150    1.0971    0.6335 C   0  0  0  0  0  0  0  0  0  0  0  0
   -0.2678    0.1846   -0.0243 C   0  0  0  0  0  0  0  0  0  0  0  0
    0.4103   -0.9732   -0.8191 C   0  0  0  0  0  0  0  0  0  0  0  0
   -1.2076   -0.3753    1.0571 C   0  0  0  0  0  0  0  0  0  0  0  0
   -2.5542   -0.4434    0.3841 C   0  0  0  0  0  0  0  0  0  0  0  0
   -2.5157    0.6916   -0.6190 C   0  0  0  0  0  0  0  0  0  0  0  0
   -1.1149    0.9372   -0.9717 N   0  0  0  0  0  0  0  0  0  0  0  0
    2.2312   -2.1630   -0.8370 H   0  0  0  0  0  0  0  0  0  0  0  0
    1.6441   -1.7153    0.7986 H   0  0  0  0  0  0  0  0  0  0  0  0
    3.4018   -0.1891    0.6513 H   0  0  0  0  0  0  0  0  0  0  0  0
    3.3629   -0.1525   -1.1411 H   0  0  0  0  0  0  0  0  0  0  0  0
    2.6464    1.8958    0.1684 H   0  0  0  0  0  0  0  0  0  0  0  0
    1.1047    0.7027    1.6357 H   0  0  0  0  0  0  0  0  0  0  0  0
    0.4181    2.1205    0.8114 H   0  0  0  0  0  0  0  0  0  0  0  0
   -0.2367   -1.8771   -0.8488 H   0  0  0  0  0  0  0  0  0  0  0  0
    0.5655   -0.6624   -1.8768 H   0  0  0  0  0  0  0  0  0  0  0  0
   -0.8899   -1.3704    1.4392 H   0  0  0  0  0  0  0  0  0  0  0  0
   -1.2837    0.3257    1.9191 H   0  0  0  0  0  0  0  0  0  0  0  0
   -2.6630   -1.4148   -0.1468 H   0  0  0  0  0  0  0  0  0  0  0  0
   -3.3852   -0.3216    1.1124 H   0  0  0  0  0  0  0  0  0  0  0  0
   -2.9651    1.6037   -0.1637 H   0  0  0  0  0  0  0  0  0  0  0  0
   -3.0923    0.4262   -1.5305 H   0  0  0  0  0  0  0  0  0  0  0  0
   -0.9345    1.9679   -0.9393 H   0  0  0  0  0  0  0  0  0  0  0  0
  1  2  1  0
  2  3  1  0
  3  4  1  0
  4  5  1  0
  5  6  1  0
  5  7  1  0
  7  8  1  0
  8  9  1  0
  9 10  1  0
  6  1  1  0
 10  5  1  0
  1 11  1  0
  1 12  1  0
  2 13  1  0
  2 14  1  0
  3 15  1  0
  4 16  1  0
  4 17  1  0
  6 18  1  0
  6 19  1  0
  7 20  1  0
  7 21  1  0
  8 22  1  0
  8 23  1  0
  9 24  1  0
  9 25  1  0
 10 26  1  0
M  END
