
     RDKit          3D

 23 24  0  0  0  0  0  0  0  0999 V2000
   -2.1638   -0.5758   -0.1551 C   0  0  0  0  0  0  0  0  0  0  0  0
   -2.1514    0.6118    0.8057 C   0  0  0  0  0  0  0  0  0  0  0  0
   -0.8248    1.2349    0.7666 N   0  0  0  0  0  0  0  0  0  0  0  0
    0.0704    0.2431    0.1619 C   0  0  0  0  0  0  0  0  0  0  0  0
   -0.7875   -0.6011   -0.7859 C   0  0  0  0  0  0  0  0  0  0  0  0
    1.2677    0.8792   -0.5336 C   0  0  0  0  0  0  0  0  0  0  0  0
    2.3691   -0.1600   -0.4007 C   0  0  0  0  0  0  0  0  0  0  0  0
    2.0441   -1.0321    0.7320 N   0  0  0  0  0  0  0  0  0  0  0  0
    0.7366   -0.6133    1.2430 C   0  0  0  0  0  0  0  0  0  0  0  0
   -2.9534   -0.4585   -0.9293 H   0  0  0  0  0  0  0  0  0  0  0  0
   -2.3431   -1.5191    0.4065 H   0  0  0  0  0  0  0  0  0  0  0  0
   -2.9401    1.3469    0.5271 H   0  0  0  0  0  0  0  0  0  0  0  0
   -2.3564    0.2635    1.8411 H   0  0  0  0  0  0  0  0  0  0  0  0
   -0.8896    2.0627    0.1265 H   0  0  0  0  0  0  0  0  0  0  0  0
   -0.4071   -1.6397   -0.9062 H   0  0  0  0  0  0  0  0  0  0  0  0
   -0.8486   -0.1254   -1.7898 H   0  0  0  0  0  0  0  0  0  0  0  0
    1.5764    1.8013    0.0085 H   0  0  0  0  0  0  0  0  0  0  0  0
    1.0736    1.1403   -1.5967 H   0  0  0  0  0  0  0  0  0  0  0  0
    3.3582    0.3321   -0.2621 H   0  0  0  0  0  0  0  0  0  0  0  0
    2.4103   -0.7778   -1.3235 H   0  0  0  0  0  0  0  0  0  0  0  0
    2.7600   -0.8949    1.4843 H   0  0  0  0  0  0  0  0  0  0  0  0
    0.1293   -1.5071    1.5036 H   0  0  0  0  0  0  0  0  0  0  0  0
    0.8699   -0.0108    2.1718 H   0  0  0  0  0  0  0  0  0  0  0  0
  1  2  1  0
  2  3  1  0
  3  4  1  0
  4  5  1  0
  4  6  1  0
  6  7  1  0
  7  8  1  0
  8  9  1  0
  5  1  1  0
  9  4  1  0
  1 10  1  0
  1 11  1  0
  2 12  1  0
  2 13  1  0
  3 14  1  0
  5 15  1  0
  5 16  1  0
  6 17  1  0
  6 18  1  0
  7 19  1  0
  7 20  1  0
  8 21  1  0
  9 22  1  0
  9 23  1  0
M  END
