
     RDKit          3D

 21 22  0  0  0  0  0  0  0  0999 V2000
   -2.3225   -0.1745    0.1305 C   0  0  0  0  0  0  0  0  0  0  0  0
   -1.3540   -1.1609   -0.5571 C   0  0  0  0  0  0  0  0  0  0  0  0
   -0.1258   -1.2299    0.1364 O   0  0  0  0  0  0  0  0  0  0  0  0
    0.5484    0.0185    0.0621 C   0  0  0  0  0  0  0  0  0  0  0  0
   -0.3735    1.2671    0.1592 C   0  0  0  0  0  0  0  0  0  0  0  0
   -1.6212    0.9104    0.8403 N   0  0  0  0  0  0  0  0  0  0  0  0
    1.7538    0.0392    0.9952 C   0  0  0  0  0  0  0  0  0  0  0  0
    2.7118    0.0703   -0.1111 N   0  0  0  0  0  0  0  0  0  0  0  0
    1.5887    0.0629   -1.0499 C   0  0  0  0  0  0  0  0  0  0  0  0
   -2.9614   -0.7299    0.8526 H   0  0  0  0  0  0  0  0  0  0  0  0
   -2.9980    0.2672   -0.6332 H   0  0  0  0  0  0  0  0  0  0  0  0
   -1.1869   -0.8643   -1.6184 H   0  0  0  0  0  0  0  0  0  0  0  0
   -1.8129   -2.1719   -0.5742 H   0  0  0  0  0  0  0  0  0  0  0  0
   -0.6166    1.6402   -0.8606 H   0  0  0  0  0  0  0  0  0  0  0  0
    0.1160    2.1069    0.6973 H   0  0  0  0  0  0  0  0  0  0  0  0
   -1.3825    0.5796    1.8054 H   0  0  0  0  0  0  0  0  0  0  0  0
    1.8433    0.9582    1.6139 H   0  0  0  0  0  0  0  0  0  0  0  0
    1.8502   -0.8866    1.6087 H   0  0  0  0  0  0  0  0  0  0  0  0
    3.1912   -0.8602   -0.1610 H   0  0  0  0  0  0  0  0  0  0  0  0
    1.5814   -0.8466   -1.6940 H   0  0  0  0  0  0  0  0  0  0  0  0
    1.5705    1.0042   -1.6419 H   0  0  0  0  0  0  0  0  0  0  0  0
  1  2  1  0
  2  3  1  0
  3  4  1  0
  4  5  1  0
  5  6  1  0
  4  7  1  0
  7  8  1  0
  8  9  1  0
  6  1  1  0
  9  4  1  0
  1 10  1  0
  1 11  1  0
  2 12  1  0
  2 13  1  0
  5 14  1  0
  5 15  1  0
  6 16  1  0
  7 17  1  0
  7 18  1  0
  8 19  1  0
  9 20  1  0
  9 21  1  0
M  END
