
     RDKit          3D

 24 25  0  0  0  0  0  0  0  0999 V2000
    2.5562    0.2773   -0.4186 C   0  0  0  0  0  0  0  0  0  0  0  0
    1.4702    1.3668   -0.3302 C   0  0  0  0  0  0  0  0  0  0  0  0
    0.2308    0.8830   -0.8101 O   0  0  0  0  0  0  0  0  0  0  0  0
   -0.2820   -0.1777   -0.0015 C   0  0  0  0  0  0  0  0  0  0  0  0
   -1.2335    0.3814    1.0469 C   0  0  0  0  0  0  0  0  0  0  0  0
   -2.5711    0.5004    0.3282 C   0  0  0  0  0  0  0  0  0  0  0  0
   -2.5207   -0.3243   -0.8833 N   0  0  0  0  0  0  0  0  0  0  0  0
   -1.2258   -1.0034   -0.8749 C   0  0  0  0  0  0  0  0  0  0  0  0
    0.8389   -1.0630    0.6233 C   0  0  0  0  0  0  0  0  0  0  0  0
    1.9947   -1.0757   -0.2746 N   0  0  0  0  0  0  0  0  0  0  0  0
    3.0568    0.3423   -1.4082 H   0  0  0  0  0  0  0  0  0  0  0  0
    3.3250    0.4641    0.3647 H   0  0  0  0  0  0  0  0  0  0  0  0
    1.7766    2.2395   -0.9446 H   0  0  0  0  0  0  0  0  0  0  0  0
    1.3703    1.7288    0.7178 H   0  0  0  0  0  0  0  0  0  0  0  0
   -1.3399   -0.3294    1.8974 H   0  0  0  0  0  0  0  0  0  0  0  0
   -0.8969    1.3645    1.4408 H   0  0  0  0  0  0  0  0  0  0  0  0
   -2.7669    1.5656    0.0672 H   0  0  0  0  0  0  0  0  0  0  0  0
   -3.3948    0.1455    0.9839 H   0  0  0  0  0  0  0  0  0  0  0  0
   -2.5465    0.3116   -1.7157 H   0  0  0  0  0  0  0  0  0  0  0  0
   -1.3796   -2.0228   -0.4579 H   0  0  0  0  0  0  0  0  0  0  0  0
   -0.8256   -1.1156   -1.9080 H   0  0  0  0  0  0  0  0  0  0  0  0
    0.4914   -2.1042    0.7993 H   0  0  0  0  0  0  0  0  0  0  0  0
    1.1444   -0.6589    1.6164 H   0  0  0  0  0  0  0  0  0  0  0  0
    2.7283   -1.6958    0.1418 H   0  0  0  0  0  0  0  0  0  0  0  0
  1  2  1  0
  2  3  1  0
  3  4  1  0
  4  5  1  0
  5  6  1  0
  6  7  1  0
  7  8  1  0
  4  9  1  0
  9 10  1  0
 10  1  1  0
  8  4  1  0
  1 11  1  0
  1 12  1  0
  2 13  1  0
  2 14  1  0
  5 15  1  0
  5 16  1  0
  6 17  1  0
  6 18  1  0
  7 19  1  0
  8 20  1  0
  8 21  1  0
  9 22  1  0
  9 23  1  0
 10 24  1  0
M  END
