
     RDKit          3D

 18 19  0  0  0  0  0  0  0  0999 V2000
   -1.7505   -0.6630   -0.3857 C   0  0  0  0  0  0  0  0  0  0  0  0
   -1.8622    0.4168    0.6707 C   0  0  0  0  0  0  0  0  0  0  0  0
   -0.5666    0.8361    1.0092 O   0  0  0  0  0  0  0  0  0  0  0  0
    0.2970    0.1655    0.1220 C   0  0  0  0  0  0  0  0  0  0  0  0
    1.4938    0.9882   -0.3253 C   0  0  0  0  0  0  0  0  0  0  0  0
    2.4444    0.1156    0.3694 N   0  0  0  0  0  0  0  0  0  0  0  0
    1.3202   -0.7070    0.8249 C   0  0  0  0  0  0  0  0  0  0  0  0
   -0.4230   -0.5266   -0.9440 N   0  0  0  0  0  0  0  0  0  0  0  0
   -1.8463   -1.6673    0.0820 H   0  0  0  0  0  0  0  0  0  0  0  0
   -2.5352   -0.5508   -1.1675 H   0  0  0  0  0  0  0  0  0  0  0  0
   -2.4287    1.2851    0.2701 H   0  0  0  0  0  0  0  0  0  0  0  0
   -2.3820    0.0313    1.5737 H   0  0  0  0  0  0  0  0  0  0  0  0
    1.5028    2.0094    0.1148 H   0  0  0  0  0  0  0  0  0  0  0  0
    1.6552    0.9919   -1.4279 H   0  0  0  0  0  0  0  0  0  0  0  0
    2.9819   -0.4269   -0.3482 H   0  0  0  0  0  0  0  0  0  0  0  0
    1.2307   -0.6736    1.9329 H   0  0  0  0  0  0  0  0  0  0  0  0
    1.3671   -1.7468    0.4259 H   0  0  0  0  0  0  0  0  0  0  0  0
   -0.4985    0.1221   -1.7633 H   0  0  0  0  0  0  0  0  0  0  0  0
  1  2  1  0
  2  3  1  0
  3  4  1  0
  4  5  1  0
  5  6  1  0
  6  7  1  0
  4  8  1  0
  8  1  1  0
  7  4  1  0
  1  9  1  0
  1 10  1  0
  2 11  1  0
  2 12  1  0
  5 13  1  0
  5 14  1  0
  6 15  1  0
  7 16  1  0
  7 17  1  0
  8 18  1  0
M  END
