
     RDKit          3D

 21 22  0  0  0  0  0  0  0  0999 V2000
   -2.0538    0.7526    0.1267 C   0  0  0  0  0  0  0  0  0  0  0  0
   -2.0657   -0.7887    0.0429 C   0  0  0  0  0  0  0  0  0  0  0  0
   -0.8883   -1.2884   -0.5615 O   0  0  0  0  0  0  0  0  0  0  0  0
    0.2396   -0.8945    0.2002 C   0  0  1  0  0  0  0  0  0  0  0  0
    1.5226   -1.3174   -0.5073 C   0  0  0  0  0  0  0  0  0  0  0  0
    2.4785   -0.2194   -0.3938 N   0  0  0  0  0  0  0  0  0  0  0  0
    1.6706    0.9945   -0.3283 C   0  0  0  0  0  0  0  0  0  0  0  0
    0.3429    0.6305    0.3289 C   0  0  1  0  0  0  0  0  0  0  0  0
   -0.7770    1.2973   -0.3498 N   0  0  0  0  0  0  0  0  0  0  0  0
   -2.2376    1.0722    1.1776 H   0  0  0  0  0  0  0  0  0  0  0  0
   -2.8741    1.1654   -0.4996 H   0  0  0  0  0  0  0  0  0  0  0  0
   -2.9353   -1.1142   -0.5665 H   0  0  0  0  0  0  0  0  0  0  0  0
   -2.2010   -1.2323    1.0557 H   0  0  0  0  0  0  0  0  0  0  0  0
    0.2130   -1.3656    1.2109 H   0  0  0  0  0  0  0  0  0  0  0  0
    1.9361   -2.2483   -0.0591 H   0  0  0  0  0  0  0  0  0  0  0  0
    1.3296   -1.5091   -1.5861 H   0  0  0  0  0  0  0  0  0  0  0  0
    2.9754   -0.3222    0.5232 H   0  0  0  0  0  0  0  0  0  0  0  0
    2.1954    1.7871    0.2502 H   0  0  0  0  0  0  0  0  0  0  0  0
    1.5103    1.3691   -1.3637 H   0  0  0  0  0  0  0  0  0  0  0  0
    0.3682    0.9157    1.4067 H   0  0  0  0  0  0  0  0  0  0  0  0
   -0.7493    2.3157   -0.1075 H   0  0  0  0  0  0  0  0  0  0  0  0
  1  2  1  0
  2  3  1  0
  3  4  1  0
  4  5  1  0
  5  6  1  0
  6  7  1  0
  7  8  1  0
  8  9  1  0
  9  1  1  0
  8  4  1  0
  1 10  1  0
  1 11  1  0
  2 12  1  0
  2 13  1  0
  4 14  1  1
  5 15  1  0
  5 16  1  0
  6 17  1  0
  7 18  1  0
  7 19  1  0
  8 20  1  1
  9 21  1  0
M  END
