
     RDKit          3D

 10 10  0  0  0  0  0  0  0  0999 V2000
    0.7075   -0.0409   -0.3383 C   0  0  0  0  0  0  0  0  0  0  0  0
   -0.3345   -0.9826    0.2070 C   0  0  0  0  0  0  0  0  0  0  0  0
   -1.1950    0.0690    0.5714 O   0  0  0  0  0  0  0  0  0  0  0  0
   -0.2771    1.0179    0.0854 C   0  0  0  0  0  0  0  0  0  0  0  0
    1.6448   -0.0314    0.2593 H   0  0  0  0  0  0  0  0  0  0  0  0
    0.8270   -0.1114   -1.4412 H   0  0  0  0  0  0  0  0  0  0  0  0
    0.0144   -1.5454    1.1009 H   0  0  0  0  0  0  0  0  0  0  0  0
   -0.7928   -1.6243   -0.5775 H   0  0  0  0  0  0  0  0  0  0  0  0
    0.1064    1.6639    0.9057 H   0  0  0  0  0  0  0  0  0  0  0  0
   -0.7007    1.5850   -0.7727 H   0  0  0  0  0  0  0  0  0  0  0  0
  1  2  1  0
  2  3  1  0
  3  4  1  0
  4  1  1  0
  1  5  1  0
  1  6  1  0
  2  7  1  0
  2  8  1  0
  4  9  1  0
  4 10  1  0
M  END
