
     RDKit          3D

 21 22  0  0  0  0  0  0  0  0999 V2000
    1.6536    0.1180    0.8997 C   0  0  0  0  0  0  0  0  0  0  0  0
    2.3249   -0.0706   -0.4841 C   0  0  0  0  0  0  0  0  0  0  0  0
    1.4423    0.1577   -1.5718 O   0  0  0  0  0  0  0  0  0  0  0  0
    0.2190   -0.5107   -1.3502 C   0  0  0  0  0  0  0  0  0  0  0  0
   -0.5183    0.1424   -0.1531 C   0  0  0  0  0  0  0  0  0  0  0  0
   -1.7532    0.9696   -0.5063 C   0  0  0  0  0  0  0  0  0  0  0  0
   -2.6622    0.0558    0.1876 N   0  0  0  0  0  0  0  0  0  0  0  0
   -1.5108   -0.7687    0.5599 C   0  0  0  0  0  0  0  0  0  0  0  0
    0.3818    0.8406    0.7834 N   0  0  0  0  0  0  0  0  0  0  0  0
    1.4684   -0.8761    1.3637 H   0  0  0  0  0  0  0  0  0  0  0  0
    2.3352    0.6749    1.5787 H   0  0  0  0  0  0  0  0  0  0  0  0
    2.7645   -1.0898   -0.5602 H   0  0  0  0  0  0  0  0  0  0  0  0
    3.1647    0.6509   -0.5721 H   0  0  0  0  0  0  0  0  0  0  0  0
    0.4025   -1.5937   -1.1597 H   0  0  0  0  0  0  0  0  0  0  0  0
   -0.3897   -0.4575   -2.2769 H   0  0  0  0  0  0  0  0  0  0  0  0
   -1.7687    1.9707   -0.0218 H   0  0  0  0  0  0  0  0  0  0  0  0
   -1.9721    1.0330   -1.5966 H   0  0  0  0  0  0  0  0  0  0  0  0
   -3.2220   -0.4625   -0.5308 H   0  0  0  0  0  0  0  0  0  0  0  0
   -1.3785   -0.7799    1.6643 H   0  0  0  0  0  0  0  0  0  0  0  0
   -1.5761   -1.7956    0.1320 H   0  0  0  0  0  0  0  0  0  0  0  0
    0.5948    1.7916    0.3985 H   0  0  0  0  0  0  0  0  0  0  0  0
  1  2  1  0
  2  3  1  0
  3  4  1  0
  4  5  1  0
  5  6  1  0
  6  7  1  0
  7  8  1  0
  5  9  1  0
  9  1  1  0
  8  5  1  0
  1 10  1  0
  1 11  1  0
  2 12  1  0
  2 13  1  0
  4 14  1  0
  4 15  1  0
  6 16  1  0
  6 17  1  0
  7 18  1  0
  8 19  1  0
  8 20  1  0
  9 21  1  0
M  END
