
     RDKit          3D

 18 19  0  0  0  0  0  0  0  0999 V2000
   -1.8235   -0.2756    0.6587 C   0  0  0  0  0  0  0  0  0  0  0  0
   -2.1016    0.2681   -0.7318 C   0  0  0  0  0  0  0  0  0  0  0  0
   -0.5259    0.3267   -1.6247 S   0  0  0  0  0  0  0  0  0  0  0  0
    0.3679    0.1638   -0.0450 C   0  0  0  0  0  0  0  0  0  0  0  0
    1.5866    1.0574    0.0870 C   0  0  0  0  0  0  0  0  0  0  0  0
    2.5123   -0.0791    0.1129 N   0  0  0  0  0  0  0  0  0  0  0  0
    1.3679   -0.9856   -0.0112 C   0  0  0  0  0  0  0  0  0  0  0  0
   -0.5395    0.2490    1.1038 N   0  0  0  0  0  0  0  0  0  0  0  0
   -1.7906   -1.3888    0.6256 H   0  0  0  0  0  0  0  0  0  0  0  0
   -2.6243    0.0383    1.3617 H   0  0  0  0  0  0  0  0  0  0  0  0
   -2.5085    1.2992   -0.6594 H   0  0  0  0  0  0  0  0  0  0  0  0
   -2.8266   -0.3780   -1.2702 H   0  0  0  0  0  0  0  0  0  0  0  0
    1.6207    1.6128    1.0501 H   0  0  0  0  0  0  0  0  0  0  0  0
    1.7532    1.7181   -0.7947 H   0  0  0  0  0  0  0  0  0  0  0  0
    3.0454   -0.0925   -0.7892 H   0  0  0  0  0  0  0  0  0  0  0  0
    1.3992   -1.5730   -0.9576 H   0  0  0  0  0  0  0  0  0  0  0  0
    1.2868   -1.6402    0.8832 H   0  0  0  0  0  0  0  0  0  0  0  0
   -0.1995   -0.3208    1.9133 H   0  0  0  0  0  0  0  0  0  0  0  0
  1  2  1  0
  2  3  1  0
  3  4  1  0
  4  5  1  0
  5  6  1  0
  6  7  1  0
  4  8  1  0
  8  1  1  0
  7  4  1  0
  1  9  1  0
  1 10  1  0
  2 11  1  0
  2 12  1  0
  5 13  1  0
  5 14  1  0
  6 15  1  0
  7 16  1  0
  7 17  1  0
  8 18  1  0
M  END
