
     RDKit          3D

 15 16  0  0  0  0  0  0  0  0999 V2000
    1.7625   -0.8598    0.1969 C   0  0  0  0  0  0  0  0  0  0  0  0
    2.3682    0.3324   -0.0055 N   0  0  0  0  0  0  0  0  0  0  0  0
    1.4565    1.2826    0.1552 N   0  0  0  0  0  0  0  0  0  0  0  0
    0.2905    0.7013    0.4800 C   0  0  0  0  0  0  0  0  0  0  0  0
    0.4409   -0.6245    0.5166 C   0  0  0  0  0  0  0  0  0  0  0  0
   -0.7949   -1.3048    0.0873 C   0  0  0  0  0  0  0  0  0  0  0  0
   -1.7793   -0.2201   -0.1281 N   0  0  0  0  0  0  0  0  0  0  0  0
   -1.0650    1.0669    0.0288 C   0  0  0  0  0  0  0  0  0  0  0  0
    2.2126   -1.8177   -0.0266 H   0  0  0  0  0  0  0  0  0  0  0  0
    1.6045    2.2865   -0.0898 H   0  0  0  0  0  0  0  0  0  0  0  0
   -0.6172   -1.8751   -0.8523 H   0  0  0  0  0  0  0  0  0  0  0  0
   -1.1516   -1.9878    0.8861 H   0  0  0  0  0  0  0  0  0  0  0  0
   -2.1447   -0.2859   -1.1074 H   0  0  0  0  0  0  0  0  0  0  0  0
   -1.5683    1.6900    0.7970 H   0  0  0  0  0  0  0  0  0  0  0  0
   -1.0146    1.6162   -0.9381 H   0  0  0  0  0  0  0  0  0  0  0  0
  1  2  2  0
  2  3  1  0
  3  4  1  0
  4  5  2  0
  5  6  1  0
  6  7  1  0
  7  8  1  0
  5  1  1  0
  8  4  1  0
  1  9  1  0
  3 10  1  0
  6 11  1  0
  6 12  1  0
  7 13  1  0
  8 14  1  0
  8 15  1  0
M  END
