
     RDKit          3D

 16 17  0  0  0  0  0  0  0  0999 V2000
   -0.9191    0.4693   -0.9417 C   0  0  0  0  0  0  0  0  0  0  0  0
   -1.9284   -0.3535   -0.2540 N   0  0  0  0  0  0  0  0  0  0  0  0
   -0.8879   -0.8522    0.6611 C   0  0  0  0  0  0  0  0  0  0  0  0
    0.1655   -0.0190   -0.0189 C   0  0  0  0  0  0  0  0  0  0  0  0
    1.0444    0.9248    0.7421 C   0  0  0  0  0  0  0  0  0  0  0  0
    2.2086    0.3130    0.2151 O   0  0  0  0  0  0  0  0  0  0  0  0
    1.4403   -0.6128   -0.5333 C   0  0  0  0  0  0  0  0  0  0  0  0
   -1.1254    1.5597   -0.8458 H   0  0  0  0  0  0  0  0  0  0  0  0
   -0.7841    0.1314   -1.9920 H   0  0  0  0  0  0  0  0  0  0  0  0
   -2.5645    0.2830    0.2832 H   0  0  0  0  0  0  0  0  0  0  0  0
   -0.7351   -1.9449    0.5264 H   0  0  0  0  0  0  0  0  0  0  0  0
   -1.0755   -0.5539    1.7178 H   0  0  0  0  0  0  0  0  0  0  0  0
    0.9614    1.9811    0.4050 H   0  0  0  0  0  0  0  0  0  0  0  0
    0.9894    0.7939    1.8449 H   0  0  0  0  0  0  0  0  0  0  0  0
    1.5912   -0.4661   -1.6251 H   0  0  0  0  0  0  0  0  0  0  0  0
    1.6192   -1.6535   -0.1849 H   0  0  0  0  0  0  0  0  0  0  0  0
  1  2  1  0
  2  3  1  0
  3  4  1  0
  4  5  1  0
  5  6  1  0
  6  7  1  0
  4  1  1  0
  7  4  1  0
  1  8  1  0
  1  9  1  0
  2 10  1  0
  3 11  1  0
  3 12  1  0
  5 13  1  0
  5 14  1  0
  7 15  1  0
  7 16  1  0
M  END
