
     RDKit          3D

 20 21  0  0  0  0  0  0  0  0999 V2000
    1.3273   -0.9124    0.0957 C   0  0  0  0  0  0  0  0  0  0  0  0
    1.6344    0.5343    0.1068 N   0  0  0  0  0  0  0  0  0  0  0  0
    0.6132    1.3350    0.8139 C   0  0  0  0  0  0  0  0  0  0  0  0
   -0.8135    0.9291    0.3777 C   0  0  2  0  0  0  0  0  0  0  0  0
   -1.0235   -0.5225    0.7599 C   0  0  0  0  0  0  0  0  0  0  0  0
   -0.1528   -1.1761   -0.2840 C   0  0  1  0  0  0  0  0  0  0  0  0
   -0.5372   -0.3853   -1.5386 C   0  0  0  0  0  0  0  0  0  0  0  0
   -0.8972    0.9702   -1.0889 N   0  0  0  0  0  0  0  0  0  0  0  0
    1.9855   -1.4127   -0.6465 H   0  0  0  0  0  0  0  0  0  0  0  0
    1.5482   -1.3585    1.0917 H   0  0  0  0  0  0  0  0  0  0  0  0
    2.5540    0.6733    0.5868 H   0  0  0  0  0  0  0  0  0  0  0  0
    0.7250    1.2147    1.9152 H   0  0  0  0  0  0  0  0  0  0  0  0
    0.7712    2.4084    0.5749 H   0  0  0  0  0  0  0  0  0  0  0  0
   -1.5727    1.5903    0.8520 H   0  0  0  0  0  0  0  0  0  0  0  0
   -0.7128   -0.7550    1.8033 H   0  0  0  0  0  0  0  0  0  0  0  0
   -2.0896   -0.8123    0.6225 H   0  0  0  0  0  0  0  0  0  0  0  0
   -0.3600   -2.2637   -0.3840 H   0  0  0  0  0  0  0  0  0  0  0  0
   -1.4052   -0.8749   -2.0370 H   0  0  0  0  0  0  0  0  0  0  0  0
    0.2997   -0.3360   -2.2682 H   0  0  0  0  0  0  0  0  0  0  0  0
   -1.8941    1.1539   -1.3534 H   0  0  0  0  0  0  0  0  0  0  0  0
  1  2  1  0
  2  3  1  0
  3  4  1  0
  4  5  1  0
  5  6  1  0
  6  7  1  0
  7  8  1  0
  6  1  1  0
  8  4  1  0
  1  9  1  0
  1 10  1  0
  2 11  1  0
  3 12  1  0
  3 13  1  0
  4 14  1  1
  5 15  1  0
  5 16  1  0
  6 17  1  6
  7 18  1  0
  7 19  1  0
  8 20  1  0
M  END
