
     RDKit          3D

 14 15  0  0  0  0  0  0  0  0999 V2000
   -0.5821    1.0401   -0.6068 C   0  0  0  0  0  0  0  0  0  0  0  0
   -1.7763    0.2421   -0.2569 N   0  0  0  0  0  0  0  0  0  0  0  0
   -0.9224   -0.7315    0.4551 C   0  0  0  0  0  0  0  0  0  0  0  0
    0.2977    0.0685    0.1098 C   0  0  0  0  0  0  0  0  0  0  0  0
    1.7312    0.0162    0.3597 C   0  0  0  0  0  0  0  0  0  0  0  0
    1.1887   -0.6386   -0.8430 N   0  0  0  0  0  0  0  0  0  0  0  0
   -0.4307    1.0732   -1.7085 H   0  0  0  0  0  0  0  0  0  0  0  0
   -0.5833    2.0417   -0.1212 H   0  0  0  0  0  0  0  0  0  0  0  0
   -2.3355    0.7744    0.4519 H   0  0  0  0  0  0  0  0  0  0  0  0
   -0.9853   -1.7341   -0.0213 H   0  0  0  0  0  0  0  0  0  0  0  0
   -1.1166   -0.7436    1.5510 H   0  0  0  0  0  0  0  0  0  0  0  0
    2.2784    0.9516    0.1214 H   0  0  0  0  0  0  0  0  0  0  0  0
    2.0405   -0.6926    1.1590 H   0  0  0  0  0  0  0  0  0  0  0  0
    1.1958   -1.6676   -0.6501 H   0  0  0  0  0  0  0  0  0  0  0  0
  1  2  1  0
  2  3  1  0
  3  4  1  0
  4  5  1  0
  5  6  1  0
  4  1  1  0
  6  4  1  0
  1  7  1  0
  1  8  1  0
  2  9  1  0
  3 10  1  0
  3 11  1  0
  5 12  1  0
  5 13  1  0
  6 14  1  0
M  END
