
     RDKit          3D

 17 18  0  0  0  0  0  0  0  0999 V2000
   -1.0790   -0.5429    0.8383 C   0  0  0  0  0  0  0  0  0  0  0  0
   -2.1225   -0.2028   -0.1427 N   0  0  0  0  0  0  0  0  0  0  0  0
   -1.0999    0.4113   -1.0054 C   0  0  0  0  0  0  0  0  0  0  0  0
   -0.0081    0.0736   -0.0237 C   0  0  0  0  0  0  0  0  0  0  0  0
    0.9312    1.1232    0.5107 C   0  0  0  0  0  0  0  0  0  0  0  0
    2.1074    0.3398    0.0986 N   0  0  0  0  0  0  0  0  0  0  0  0
    1.2158   -0.7018   -0.4371 C   0  0  0  0  0  0  0  0  0  0  0  0
   -0.9646   -1.6430    0.9698 H   0  0  0  0  0  0  0  0  0  0  0  0
   -1.2416    0.0044    1.7921 H   0  0  0  0  0  0  0  0  0  0  0  0
   -2.4509   -1.0881   -0.5972 H   0  0  0  0  0  0  0  0  0  0  0  0
   -0.9977   -0.1159   -1.9813 H   0  0  0  0  0  0  0  0  0  0  0  0
   -1.2742    1.5045   -1.1061 H   0  0  0  0  0  0  0  0  0  0  0  0
    0.8731    1.2494    1.6158 H   0  0  0  0  0  0  0  0  0  0  0  0
    0.8801    2.0817   -0.0500 H   0  0  0  0  0  0  0  0  0  0  0  0
    2.5742   -0.0343    0.9591 H   0  0  0  0  0  0  0  0  0  0  0  0
    1.3277   -0.7873   -1.5397 H   0  0  0  0  0  0  0  0  0  0  0  0
    1.3289   -1.6718    0.0988 H   0  0  0  0  0  0  0  0  0  0  0  0
  1  2  1  0
  2  3  1  0
  3  4  1  0
  4  5  1  0
  5  6  1  0
  6  7  1  0
  4  1  1  0
  7  4  1  0
  1  8  1  0
  1  9  1  0
  2 10  1  0
  3 11  1  0
  3 12  1  0
  5 13  1  0
  5 14  1  0
  6 15  1  0
  7 16  1  0
  7 17  1  0
M  END
