
     RDKit          3D

 13 14  0  0  0  0  0  0  0  0999 V2000
    1.5364   -0.2534    0.4061 C   0  0  0  0  0  0  0  0  0  0  0  0
    1.0257   -0.1105   -0.9667 N   0  0  0  0  0  0  0  0  0  0  0  0
    0.1063   -0.0690    0.1982 C   0  0  0  0  0  0  0  0  0  0  0  0
   -0.8818    1.0418    0.0950 C   0  0  0  0  0  0  0  0  0  0  0  0
   -1.9290    0.0964   -0.0886 O   0  0  0  0  0  0  0  0  0  0  0  0
   -1.0303   -1.0036   -0.0006 C   0  0  0  0  0  0  0  0  0  0  0  0
    2.0723    0.6445    0.7848 H   0  0  0  0  0  0  0  0  0  0  0  0
    1.8406   -1.2950    0.6383 H   0  0  0  0  0  0  0  0  0  0  0  0
    1.2756    0.8577   -1.2771 H   0  0  0  0  0  0  0  0  0  0  0  0
   -0.7792    1.7012   -0.7949 H   0  0  0  0  0  0  0  0  0  0  0  0
   -0.9998    1.5893    1.0547 H   0  0  0  0  0  0  0  0  0  0  0  0
   -1.0028   -1.5812   -0.9516 H   0  0  0  0  0  0  0  0  0  0  0  0
   -1.2341   -1.6182    0.9024 H   0  0  0  0  0  0  0  0  0  0  0  0
  1  2  1  0
  2  3  1  0
  3  4  1  0
  4  5  1  0
  5  6  1  0
  3  1  1  0
  6  3  1  0
  1  7  1  0
  1  8  1  0
  2  9  1  0
  4 10  1  0
  4 11  1  0
  6 12  1  0
  6 13  1  0
M  END
