
     RDKit          3D

 14 15  0  0  0  0  0  0  0  0999 V2000
    1.2184   -0.1755   -0.5795 C   0  0  0  0  0  0  0  0  0  0  0  0
    1.2486    0.2403    0.8243 N   0  0  0  0  0  0  0  0  0  0  0  0
   -0.0931   -0.0054    1.3574 C   0  0  0  0  0  0  0  0  0  0  0  0
   -1.0350   -0.2261    0.1909 C   0  0  1  0  0  0  0  0  0  0  0  0
   -1.0282    0.8899   -0.7744 N   0  0  0  0  0  0  0  0  0  0  0  0
   -0.2297   -0.3306   -0.9983 C   0  0  1  0  0  0  0  0  0  0  0  0
    1.7326   -1.1547   -0.6796 H   0  0  0  0  0  0  0  0  0  0  0  0
    1.7310    0.5668   -1.2310 H   0  0  0  0  0  0  0  0  0  0  0  0
    1.4231    1.2731    0.8518 H   0  0  0  0  0  0  0  0  0  0  0  0
   -0.0723   -0.9205    1.9861 H   0  0  0  0  0  0  0  0  0  0  0  0
   -0.4426    0.8487    1.9790 H   0  0  0  0  0  0  0  0  0  0  0  0
   -1.9745   -0.8189    0.2414 H   0  0  0  0  0  0  0  0  0  0  0  0
   -1.8951    0.8123   -1.3545 H   0  0  0  0  0  0  0  0  0  0  0  0
   -0.5832   -0.9993   -1.8135 H   0  0  0  0  0  0  0  0  0  0  0  0
  1  2  1  0
  2  3  1  0
  3  4  1  0
  4  5  1  0
  5  6  1  0
  6  1  1  0
  6  4  1  0
  1  7  1  0
  1  8  1  0
  2  9  1  0
  3 10  1  0
  3 11  1  0
  4 12  1  1
  5 13  1  0
  6 14  1  6
M  END
