
     RDKit          3D

 20 21  0  0  0  0  0  0  0  0999 V2000
   -1.4665   -0.9813   -0.2515 C   0  0  0  0  0  0  0  0  0  0  0  0
   -1.9376    0.2478    0.3783 N   0  0  0  0  0  0  0  0  0  0  0  0
   -1.1728    1.3180   -0.2533 C   0  0  0  0  0  0  0  0  0  0  0  0
    0.1810    0.7397   -0.6763 C   0  0  0  0  0  0  0  0  0  0  0  0
    1.2933    1.0032    0.3419 C   0  0  0  0  0  0  0  0  0  0  0  0
    1.3878   -0.1763    1.1943 N   0  0  0  0  0  0  0  0  0  0  0  0
    0.9997   -1.2956    0.3437 C   0  0  0  0  0  0  0  0  0  0  0  0
   -0.0109   -0.7626   -0.6751 C   0  0  0  0  0  0  0  0  0  0  0  0
   -2.0852   -1.1742   -1.1554 H   0  0  0  0  0  0  0  0  0  0  0  0
   -1.5970   -1.8505    0.4302 H   0  0  0  0  0  0  0  0  0  0  0  0
   -1.6631    0.2135    1.3890 H   0  0  0  0  0  0  0  0  0  0  0  0
   -1.0805    2.1932    0.4269 H   0  0  0  0  0  0  0  0  0  0  0  0
   -1.7233    1.6588   -1.1576 H   0  0  0  0  0  0  0  0  0  0  0  0
    0.4719    1.1180   -1.6821 H   0  0  0  0  0  0  0  0  0  0  0  0
    2.2548    1.1551   -0.2010 H   0  0  0  0  0  0  0  0  0  0  0  0
    1.1067    1.9052    0.9625 H   0  0  0  0  0  0  0  0  0  0  0  0
    2.3817   -0.3030    1.4987 H   0  0  0  0  0  0  0  0  0  0  0  0
    0.5925   -2.1207    0.9657 H   0  0  0  0  0  0  0  0  0  0  0  0
    1.8920   -1.6851   -0.1987 H   0  0  0  0  0  0  0  0  0  0  0  0
    0.1754   -1.2034   -1.6802 H   0  0  0  0  0  0  0  0  0  0  0  0
  1  2  1  0
  2  3  1  0
  3  4  1  0
  4  5  1  0
  5  6  1  0
  6  7  1  0
  7  8  1  0
  8  1  1  0
  8  4  1  0
  1  9  1  0
  1 10  1  0
  2 11  1  0
  3 12  1  0
  3 13  1  0
  4 14  1  0
  5 15  1  0
  5 16  1  0
  6 17  1  0
  7 18  1  0
  7 19  1  0
  8 20  1  0
M  END
