
     RDKit          3D

 13 14  0  0  0  0  0  0  0  0999 V2000
   -0.4078    1.0689   -0.5157 C   0  0  0  0  0  0  0  0  0  0  0  0
   -1.6007    0.2034   -0.6150 N   0  0  0  0  0  0  0  0  0  0  0  0
   -0.7966   -0.9542   -0.1728 C   0  0  0  0  0  0  0  0  0  0  0  0
    0.4199   -0.0919   -0.0662 C   0  0  0  0  0  0  0  0  0  0  0  0
    1.7925   -0.2652    0.4675 C   0  0  0  0  0  0  0  0  0  0  0  0
    0.7320    0.0808    1.3066 O   0  0  0  0  0  0  0  0  0  0  0  0
   -0.5284    1.8792    0.2408 H   0  0  0  0  0  0  0  0  0  0  0  0
   -0.0962    1.4344   -1.5173 H   0  0  0  0  0  0  0  0  0  0  0  0
   -2.2607    0.4611    0.1573 H   0  0  0  0  0  0  0  0  0  0  0  0
   -0.6997   -1.7057   -0.9851 H   0  0  0  0  0  0  0  0  0  0  0  0
   -1.1548   -1.3805    0.7933 H   0  0  0  0  0  0  0  0  0  0  0  0
    2.1177   -1.3157    0.6145 H   0  0  0  0  0  0  0  0  0  0  0  0
    2.4829    0.5854    0.2923 H   0  0  0  0  0  0  0  0  0  0  0  0
  1  2  1  0
  2  3  1  0
  3  4  1  0
  4  5  1  0
  5  6  1  0
  4  1  1  0
  6  4  1  0
  1  7  1  0
  1  8  1  0
  2  9  1  0
  3 10  1  0
  3 11  1  0
  5 12  1  0
  5 13  1  0
M  END
