
     RDKit          3D

 15 16  0  0  0  0  0  0  0  0999 V2000
   -0.9971    0.6175    0.8574 C   0  0  0  0  0  0  0  0  0  0  0  0
   -1.9799   -0.0942    0.0229 N   0  0  0  0  0  0  0  0  0  0  0  0
   -0.8815   -0.8218   -0.6350 C   0  0  0  0  0  0  0  0  0  0  0  0
    0.1429   -0.1165    0.2089 C   0  0  0  0  0  0  0  0  0  0  0  0
    1.3385    0.5521   -0.3446 C   0  0  0  0  0  0  0  0  0  0  0  0
    2.0985   -0.3118    0.5560 N   0  0  0  0  0  0  0  0  0  0  0  0
    0.9506   -0.9049    1.0307 O   0  0  0  0  0  0  0  0  0  0  0  0
   -0.9856    1.7131    0.6564 H   0  0  0  0  0  0  0  0  0  0  0  0
   -1.1229    0.3586    1.9312 H   0  0  0  0  0  0  0  0  0  0  0  0
   -2.3856    0.5854   -0.6639 H   0  0  0  0  0  0  0  0  0  0  0  0
   -0.9405   -1.9114   -0.4226 H   0  0  0  0  0  0  0  0  0  0  0  0
   -0.8017   -0.5778   -1.7189 H   0  0  0  0  0  0  0  0  0  0  0  0
    1.4301    1.6192   -0.0503 H   0  0  0  0  0  0  0  0  0  0  0  0
    1.5273    0.3255   -1.4180 H   0  0  0  0  0  0  0  0  0  0  0  0
    2.6070   -1.0328   -0.0100 H   0  0  0  0  0  0  0  0  0  0  0  0
  1  2  1  0
  2  3  1  0
  3  4  1  0
  4  5  1  0
  5  6  1  0
  6  7  1  0
  4  1  1  0
  7  4  1  0
  1  8  1  0
  1  9  1  0
  2 10  1  0
  3 11  1  0
  3 12  1  0
  5 13  1  0
  5 14  1  0
  6 15  1  0
M  END
