
     RDKit          3D

 17 18  0  0  0  0  0  0  0  0999 V2000
    1.3907    0.4254    0.2188 C   0  0  0  0  0  0  0  0  0  0  0  0
    0.8238   -0.6344    1.0681 N   0  0  0  0  0  0  0  0  0  0  0  0
   -0.4497   -0.9348    0.3956 C   0  0  0  0  0  0  0  0  0  0  0  0
   -1.3934    0.2440    0.6550 C   0  0  0  0  0  0  0  0  0  0  0  0
   -0.8586    1.3150   -0.2003 N   0  0  0  0  0  0  0  0  0  0  0  0
    0.3018    0.6695   -0.8397 C   0  0  0  0  0  0  0  0  0  0  0  0
   -0.1614   -0.7394   -1.0689 C   0  0  0  0  0  0  0  0  0  0  0  0
    1.5957    1.3358    0.8215 H   0  0  0  0  0  0  0  0  0  0  0  0
    2.3373    0.0903   -0.2646 H   0  0  0  0  0  0  0  0  0  0  0  0
    1.4349   -1.4830    1.0040 H   0  0  0  0  0  0  0  0  0  0  0  0
   -0.8669   -1.9288    0.6674 H   0  0  0  0  0  0  0  0  0  0  0  0
   -2.4292   -0.0058    0.3377 H   0  0  0  0  0  0  0  0  0  0  0  0
   -1.3946    0.5366    1.7295 H   0  0  0  0  0  0  0  0  0  0  0  0
   -0.5452    2.1219    0.3892 H   0  0  0  0  0  0  0  0  0  0  0  0
    0.6465    1.2032   -1.7507 H   0  0  0  0  0  0  0  0  0  0  0  0
    0.6381   -1.4154   -1.4508 H   0  0  0  0  0  0  0  0  0  0  0  0
   -1.0696   -0.8001   -1.7119 H   0  0  0  0  0  0  0  0  0  0  0  0
  1  2  1  0
  2  3  1  0
  3  4  1  0
  4  5  1  0
  5  6  1  0
  6  7  1  0
  6  1  1  0
  7  3  1  0
  1  8  1  0
  1  9  1  0
  2 10  1  0
  3 11  1  0
  4 12  1  0
  4 13  1  0
  5 14  1  0
  6 15  1  0
  7 16  1  0
  7 17  1  0
M  END
