
     RDKit          3D

 14 15  0  0  0  0  0  0  0  0999 V2000
    2.0449    0.2671   -0.1799 C   0  0  0  0  0  0  0  0  0  0  0  0
    2.3577   -1.0355   -0.4127 N   0  0  0  0  0  0  0  0  0  0  0  0
    1.2362   -1.7128   -0.4303 O   0  0  0  0  0  0  0  0  0  0  0  0
    0.2433   -0.8908   -0.2186 C   0  0  0  0  0  0  0  0  0  0  0  0
    0.6796    0.3331   -0.0577 C   0  0  0  0  0  0  0  0  0  0  0  0
   -0.4255    1.2711    0.1727 C   0  0  0  0  0  0  0  0  0  0  0  0
   -1.6454    0.4183    0.1331 N   0  0  0  0  0  0  0  0  0  0  0  0
   -1.2155   -0.9830   -0.1215 C   0  0  0  0  0  0  0  0  0  0  0  0
    2.7549    1.0798   -0.1104 H   0  0  0  0  0  0  0  0  0  0  0  0
   -0.4643    2.0253   -0.6410 H   0  0  0  0  0  0  0  0  0  0  0  0
   -0.3094    1.7693    1.1605 H   0  0  0  0  0  0  0  0  0  0  0  0
   -2.1082    0.4579    1.0718 H   0  0  0  0  0  0  0  0  0  0  0  0
   -1.5056   -1.6568    0.7147 H   0  0  0  0  0  0  0  0  0  0  0  0
   -1.6427   -1.3429   -1.0807 H   0  0  0  0  0  0  0  0  0  0  0  0
  1  2  2  0
  2  3  1  0
  3  4  1  0
  4  5  2  0
  5  6  1  0
  6  7  1  0
  7  8  1  0
  5  1  1  0
  8  4  1  0
  1  9  1  0
  6 10  1  0
  6 11  1  0
  7 12  1  0
  8 13  1  0
  8 14  1  0
M  END
