
     RDKit          3D

 12 13  0  0  0  0  0  0  0  0999 V2000
   -1.0404    0.8417    0.0365 C   0  0  0  0  0  0  0  0  0  0  0  0
   -1.8112   -0.3481    0.1493 O   0  0  0  0  0  0  0  0  0  0  0  0
   -0.6526   -1.1698    0.0790 C   0  0  0  0  0  0  0  0  0  0  0  0
    0.2061    0.0367   -0.0437 C   0  0  0  0  0  0  0  0  0  0  0  0
    1.6625    0.3182   -0.0065 C   0  0  0  0  0  0  0  0  0  0  0  0
    0.9232    0.2006    1.1700 O   0  0  0  0  0  0  0  0  0  0  0  0
   -1.2589    1.3745   -0.9138 H   0  0  0  0  0  0  0  0  0  0  0  0
   -1.1362    1.4748    0.9472 H   0  0  0  0  0  0  0  0  0  0  0  0
   -0.5135   -1.7555    1.0154 H   0  0  0  0  0  0  0  0  0  0  0  0
   -0.6501   -1.7838   -0.8470 H   0  0  0  0  0  0  0  0  0  0  0  0
    1.9499    1.3687   -0.2182 H   0  0  0  0  0  0  0  0  0  0  0  0
    2.3212   -0.5580   -0.1775 H   0  0  0  0  0  0  0  0  0  0  0  0
  1  2  1  0
  2  3  1  0
  3  4  1  0
  4  5  1  0
  5  6  1  0
  4  1  1  0
  6  4  1  0
  1  7  1  0
  1  8  1  0
  3  9  1  0
  3 10  1  0
  5 11  1  0
  5 12  1  0
M  END
