
     RDKit          3D

 26 27  0  0  0  0  0  0  0  0999 V2000
    1.5523    0.0799    1.3962 C   0  0  0  0  0  0  0  0  0  0  0  0
    0.7750    0.0853    0.0579 C   0  0  2  0  0  0  0  0  0  0  0  0
    0.9494    1.4476   -0.6474 C   0  0  0  0  0  0  0  0  0  0  0  0
   -0.2894    2.1883   -0.4530 N   0  0  0  0  0  0  0  0  0  0  0  0
   -1.3378    1.1780   -0.4883 C   0  0  0  0  0  0  0  0  0  0  0  0
   -0.7583   -0.0954    0.1645 C   0  0  2  0  0  0  0  0  0  0  0  0
   -1.3231   -0.2590    1.5961 C   0  0  0  0  0  0  0  0  0  0  0  0
   -1.0552   -1.3505   -0.6772 C   0  0  0  0  0  0  0  0  0  0  0  0
    0.0693   -1.5261   -1.5897 N   0  0  0  0  0  0  0  0  0  0  0  0
    1.2364   -1.0804   -0.8366 C   0  0  0  0  0  0  0  0  0  0  0  0
    1.4087   -0.8759    1.9423 H   0  0  0  0  0  0  0  0  0  0  0  0
    2.6404    0.1948    1.2017 H   0  0  0  0  0  0  0  0  0  0  0  0
    1.2302    0.9217    2.0451 H   0  0  0  0  0  0  0  0  0  0  0  0
    1.8000    2.0341   -0.2367 H   0  0  0  0  0  0  0  0  0  0  0  0
    1.1317    1.3207   -1.7403 H   0  0  0  0  0  0  0  0  0  0  0  0
   -0.4233    2.8538   -1.2506 H   0  0  0  0  0  0  0  0  0  0  0  0
   -2.2367    1.5583    0.0440 H   0  0  0  0  0  0  0  0  0  0  0  0
   -1.6332    0.9948   -1.5480 H   0  0  0  0  0  0  0  0  0  0  0  0
   -1.1191    0.6448    2.2085 H   0  0  0  0  0  0  0  0  0  0  0  0
   -0.8891   -1.1467    2.1021 H   0  0  0  0  0  0  0  0  0  0  0  0
   -2.4243   -0.4021    1.5539 H   0  0  0  0  0  0  0  0  0  0  0  0
   -2.0031   -1.2614   -1.2506 H   0  0  0  0  0  0  0  0  0  0  0  0
   -1.1430   -2.2517   -0.0260 H   0  0  0  0  0  0  0  0  0  0  0  0
    0.1733   -2.5430   -1.8175 H   0  0  0  0  0  0  0  0  0  0  0  0
    1.6184   -1.9262   -0.2180 H   0  0  0  0  0  0  0  0  0  0  0  0
    2.0506   -0.7837   -1.5325 H   0  0  0  0  0  0  0  0  0  0  0  0
  2  1  1  1
  2  3  1  0
  3  4  1  0
  4  5  1  0
  5  6  1  0
  6  7  1  1
  6  8  1  0
  8  9  1  0
  9 10  1  0
  6  2  1  0
 10  2  1  0
  1 11  1  0
  1 12  1  0
  1 13  1  0
  3 14  1  0
  3 15  1  0
  4 16  1  0
  5 17  1  0
  5 18  1  0
  7 19  1  0
  7 20  1  0
  7 21  1  0
  8 22  1  0
  8 23  1  0
  9 24  1  0
 10 25  1  0
 10 26  1  0
M  END
