
     RDKit          3D

 23 24  0  0  0  0  0  0  0  0999 V2000
    1.5722    1.3277    0.5235 C   0  0  0  0  0  0  0  0  0  0  0  0
    0.5297    0.3952   -0.1232 C   0  0  2  0  0  0  0  0  0  0  0  0
   -0.5139    1.1925   -0.9304 C   0  0  0  0  0  0  0  0  0  0  0  0
   -1.8081    0.5610   -0.7013 N   0  0  0  0  0  0  0  0  0  0  0  0
   -1.7396    0.0397    0.6583 C   0  0  0  0  0  0  0  0  0  0  0  0
   -0.2866   -0.3697    0.9127 C   0  0  1  0  0  0  0  0  0  0  0  0
   -0.0281   -1.8497    0.6129 C   0  0  0  0  0  0  0  0  0  0  0  0
    0.4815   -1.9462   -0.7504 N   0  0  0  0  0  0  0  0  0  0  0  0
    1.2060   -0.6997   -0.9731 C   0  0  0  0  0  0  0  0  0  0  0  0
    2.2849    0.7455    1.1467 H   0  0  0  0  0  0  0  0  0  0  0  0
    1.0753    2.0765    1.1774 H   0  0  0  0  0  0  0  0  0  0  0  0
    2.1435    1.8650   -0.2636 H   0  0  0  0  0  0  0  0  0  0  0  0
   -0.2924    1.2100   -2.0185 H   0  0  0  0  0  0  0  0  0  0  0  0
   -0.5555    2.2523   -0.5858 H   0  0  0  0  0  0  0  0  0  0  0  0
   -2.5618    1.2863   -0.7541 H   0  0  0  0  0  0  0  0  0  0  0  0
   -2.0248    0.8371    1.3830 H   0  0  0  0  0  0  0  0  0  0  0  0
   -2.4542   -0.8019    0.7793 H   0  0  0  0  0  0  0  0  0  0  0  0
   -0.0016   -0.1370    1.9642 H   0  0  0  0  0  0  0  0  0  0  0  0
   -0.9307   -2.4863    0.7439 H   0  0  0  0  0  0  0  0  0  0  0  0
    0.7505   -2.2328    1.3088 H   0  0  0  0  0  0  0  0  0  0  0  0
   -0.3413   -1.9589   -1.3991 H   0  0  0  0  0  0  0  0  0  0  0  0
    1.2344   -0.4509   -2.0569 H   0  0  0  0  0  0  0  0  0  0  0  0
    2.2605   -0.8558   -0.6542 H   0  0  0  0  0  0  0  0  0  0  0  0
  2  1  1  1
  2  3  1  0
  3  4  1  0
  4  5  1  0
  5  6  1  0
  6  7  1  0
  7  8  1  0
  8  9  1  0
  6  2  1  0
  9  2  1  0
  1 10  1  0
  1 11  1  0
  1 12  1  0
  3 13  1  0
  3 14  1  0
  4 15  1  0
  5 16  1  0
  5 17  1  0
  6 18  1  1
  7 19  1  0
  7 20  1  0
  8 21  1  0
  9 22  1  0
  9 23  1  0
M  END
