
     RDKit          3D

 26 27  0  0  0  0  0  0  0  0999 V2000
   -4.2434   -1.1932   -0.4117 C   0  0  0  0  0  0  0  0  0  0  0  0
   -2.8793   -0.6551   -0.0963 C   0  0  0  0  0  0  0  0  0  0  0  0
   -2.3214    0.3635   -0.8841 C   0  0  0  0  0  0  0  0  0  0  0  0
   -1.0654    0.8906   -0.5687 C   0  0  0  0  0  0  0  0  0  0  0  0
   -0.3615    0.4169    0.5472 C   0  0  0  0  0  0  0  0  0  0  0  0
    1.2290    1.0611    0.9422 S   0  0  0  0  0  0  0  0  0  0  0  0
    1.3292    1.2429    2.4310 O   0  0  0  0  0  0  0  0  0  0  0  0
    1.4155    2.4015    0.2828 O   0  0  0  0  0  0  0  0  0  0  0  0
    2.4523   -0.0704    0.4117 N   0  0  0  0  0  0  0  0  0  0  0  0
    2.5789   -0.0615   -1.0498 C   0  0  0  0  0  0  0  0  0  0  0  0
    3.9660    0.5496   -1.0140 C   0  0  0  0  0  0  0  0  0  0  0  0
    3.7900    0.5259    0.4919 C   0  0  0  0  0  0  0  0  0  0  0  0
   -0.9220   -0.5920    1.3412 C   0  0  0  0  0  0  0  0  0  0  0  0
   -2.1780   -1.1196    1.0269 C   0  0  0  0  0  0  0  0  0  0  0  0
   -5.0099   -0.5875    0.1152 H   0  0  0  0  0  0  0  0  0  0  0  0
   -4.3317   -2.2519   -0.0868 H   0  0  0  0  0  0  0  0  0  0  0  0
   -4.4376   -1.1525   -1.5047 H   0  0  0  0  0  0  0  0  0  0  0  0
   -2.8570    0.7476   -1.7435 H   0  0  0  0  0  0  0  0  0  0  0  0
   -0.6450    1.6666   -1.1953 H   0  0  0  0  0  0  0  0  0  0  0  0
    2.5821   -1.0985   -1.4518 H   0  0  0  0  0  0  0  0  0  0  0  0
    1.8523    0.5956   -1.5772 H   0  0  0  0  0  0  0  0  0  0  0  0
    4.7258   -0.2005   -1.3253 H   0  0  0  0  0  0  0  0  0  0  0  0
    4.5019   -0.1678    0.9909 H   0  0  0  0  0  0  0  0  0  0  0  0
    3.8186    1.5494    0.9279 H   0  0  0  0  0  0  0  0  0  0  0  0
   -0.3873   -0.9692    2.2037 H   0  0  0  0  0  0  0  0  0  0  0  0
   -2.6019   -1.8915    1.6574 H   0  0  0  0  0  0  0  0  0  0  0  0
  1  2  1  0
  2  3  2  0
  3  4  1  0
  4  5  2  0
  5  6  1  0
  6  7  2  0
  6  8  2  0
  6  9  1  0
  9 10  1  0
 10 11  1  0
 11 12  1  0
  5 13  1  0
 13 14  2  0
 14  2  1  0
 12  9  1  0
  1 15  1  0
  1 16  1  0
  1 17  1  0
  3 18  1  0
  4 19  1  0
 10 20  1  0
 10 21  1  0
 11 22  1  0
 12 23  1  0
 12 24  1  0
 13 25  1  0
 14 26  1  0
M  CHG  1  11  -1
M  END
