
     RDKit          3D

 27 28  0  0  0  0  0  0  0  0999 V2000
    4.4494    0.1741   -1.0909 C   0  0  0  0  0  0  0  0  0  0  0  0
    3.0529   -0.0474   -0.5903 C   0  0  0  0  0  0  0  0  0  0  0  0
    2.0972   -0.6659   -1.4109 C   0  0  0  0  0  0  0  0  0  0  0  0
    0.8057   -0.9054   -0.9318 C   0  0  0  0  0  0  0  0  0  0  0  0
    0.4611   -0.5444    0.3782 C   0  0  0  0  0  0  0  0  0  0  0  0
   -1.1678   -0.8247    0.9855 S   0  0  0  0  0  0  0  0  0  0  0  0
   -1.0843   -1.3361    2.3965 O   0  0  0  0  0  0  0  0  0  0  0  0
   -1.8572   -1.8622    0.1402 O   0  0  0  0  0  0  0  0  0  0  0  0
   -2.0533    0.6830    0.9654 N   0  0  0  0  0  0  0  0  0  0  0  0
   -2.4016    1.0685   -0.4079 C   0  0  0  0  0  0  0  0  0  0  0  0
   -3.8828    0.8353   -0.1864 C   0  0  0  0  0  0  0  0  0  0  0  0
   -3.4803    0.4559    1.2250 C   0  0  0  0  0  0  0  0  0  0  0  0
    1.4173    0.0628    1.2024 C   0  0  0  0  0  0  0  0  0  0  0  0
    2.7091    0.3024    0.7245 C   0  0  0  0  0  0  0  0  0  0  0  0
    5.0687   -0.7186   -0.8638 H   0  0  0  0  0  0  0  0  0  0  0  0
    4.4496    0.3457   -2.1885 H   0  0  0  0  0  0  0  0  0  0  0  0
    4.9035    1.0636   -0.6046 H   0  0  0  0  0  0  0  0  0  0  0  0
    2.3507   -0.9602   -2.4219 H   0  0  0  0  0  0  0  0  0  0  0  0
    0.0779   -1.3715   -1.5833 H   0  0  0  0  0  0  0  0  0  0  0  0
   -1.9782    0.4105   -1.2001 H   0  0  0  0  0  0  0  0  0  0  0  0
   -2.1699    2.1417   -0.5832 H   0  0  0  0  0  0  0  0  0  0  0  0
   -4.4844    1.7688   -0.2338 H   0  0  0  0  0  0  0  0  0  0  0  0
   -4.2771   -0.0248   -0.7697 H   0  0  0  0  0  0  0  0  0  0  0  0
   -3.7473   -0.5949    1.4800 H   0  0  0  0  0  0  0  0  0  0  0  0
   -3.8614    1.1818    1.9761 H   0  0  0  0  0  0  0  0  0  0  0  0
    1.1630    0.3495    2.2150 H   0  0  0  0  0  0  0  0  0  0  0  0
    3.4396    0.7628    1.3783 H   0  0  0  0  0  0  0  0  0  0  0  0
  1  2  1  0
  2  3  2  0
  3  4  1  0
  4  5  2  0
  5  6  1  0
  6  7  2  0
  6  8  2  0
  6  9  1  0
  9 10  1  0
 10 11  1  0
 11 12  1  0
  5 13  1  0
 13 14  2  0
 14  2  1  0
 12  9  1  0
  1 15  1  0
  1 16  1  0
  1 17  1  0
  3 18  1  0
  4 19  1  0
 10 20  1  0
 10 21  1  0
 11 22  1  0
 11 23  1  0
 12 24  1  0
 12 25  1  0
 13 26  1  0
 14 27  1  0
M  END
