
     RDKit          3D

 26 27  0  0  0  0  0  0  0  0999 V2000
   -3.8701   -0.7500    0.6670 C   0  0  0  0  0  0  0  0  0  0  0  0
   -2.5183   -0.1865    0.3434 C   0  0  0  0  0  0  0  0  0  0  0  0
   -2.0213   -0.2493   -0.9669 C   0  0  0  0  0  0  0  0  0  0  0  0
   -0.7774    0.3083   -1.2765 C   0  0  0  0  0  0  0  0  0  0  0  0
   -0.0149    0.9369   -0.2811 C   0  0  0  0  0  0  0  0  0  0  0  0
    1.5556    1.6542   -0.6768 S   0  0  0  0  0  0  0  0  0  0  0  0
    1.5258    2.1274   -2.1032 O   0  0  0  0  0  0  0  0  0  0  0  0
    1.7757    2.8528    0.2034 O   0  0  0  0  0  0  0  0  0  0  0  0
    2.9068    0.5548   -0.4774 N   0  0  0  0  0  0  0  0  0  0  0  0
    2.6421   -0.7347   -1.0878 C   0  0  0  0  0  0  0  0  0  0  0  0
    2.5439   -1.5033    0.2091 C   0  0  0  0  0  0  0  0  0  0  0  0
    2.8458   -0.1432    0.7933 C   0  0  0  0  0  0  0  0  0  0  0  0
   -0.5286    1.0308    1.0208 C   0  0  0  0  0  0  0  0  0  0  0  0
   -1.7724    0.4735    1.3312 C   0  0  0  0  0  0  0  0  0  0  0  0
   -4.6433    0.0299    0.5056 H   0  0  0  0  0  0  0  0  0  0  0  0
   -3.9107   -1.0875    1.7246 H   0  0  0  0  0  0  0  0  0  0  0  0
   -4.0955   -1.6237    0.0191 H   0  0  0  0  0  0  0  0  0  0  0  0
   -2.5973   -0.7280   -1.7493 H   0  0  0  0  0  0  0  0  0  0  0  0
   -0.4124    0.2518   -2.2939 H   0  0  0  0  0  0  0  0  0  0  0  0
    1.7048   -0.7925   -1.6794 H   0  0  0  0  0  0  0  0  0  0  0  0
    3.5164   -1.0741   -1.6849 H   0  0  0  0  0  0  0  0  0  0  0  0
    2.3830   -2.5210    0.5466 H   0  0  0  0  0  0  0  0  0  0  0  0
    2.0473    0.2018    1.4826 H   0  0  0  0  0  0  0  0  0  0  0  0
    3.8389   -0.1376    1.2931 H   0  0  0  0  0  0  0  0  0  0  0  0
    0.0306    1.5382    1.7963 H   0  0  0  0  0  0  0  0  0  0  0  0
   -2.1543    0.5585    2.3412 H   0  0  0  0  0  0  0  0  0  0  0  0
  1  2  1  0
  2  3  2  0
  3  4  1  0
  4  5  2  0
  5  6  1  0
  6  7  2  0
  6  8  2  0
  6  9  1  0
  9 10  1  0
 10 11  1  0
 11 12  1  0
  5 13  1  0
 13 14  2  0
 14  2  1  0
 12  9  1  0
  1 15  1  0
  1 16  1  0
  1 17  1  0
  3 18  1  0
  4 19  1  0
 10 20  1  0
 10 21  1  0
 11 22  1  0
 12 23  1  0
 12 24  1  0
 13 25  1  0
 14 26  1  0
M  CHG  1  11   1
M  END
