
     RDKit          3D

 22 22  0  0  0  0  0  0  0  0999 V2000
    2.9074   -0.9789   -1.3558 F   0  0  0  0  0  0  0  0  0  0  0  0
    2.4769    0.1091   -0.6163 C   0  0  0  0  0  0  0  0  0  0  0  0
    2.7765    1.2584   -1.3268 F   0  0  0  0  0  0  0  0  0  0  0  0
    3.1584    0.1341    0.5885 F   0  0  0  0  0  0  0  0  0  0  0  0
    0.9537    0.0239   -0.3727 C   0  0  0  0  0  0  0  0  0  0  0  0
    0.6032   -1.2811    0.3711 C   0  0  0  0  0  0  0  0  0  0  0  0
   -0.9014   -1.5763    0.3926 C   0  0  0  0  0  0  0  0  0  0  0  0
   -1.6693   -0.4661    0.9806 N   0  0  0  0  0  0  0  0  0  0  0  0
   -1.9284    0.5975   -0.0043 C   0  0  0  0  0  0  0  0  0  0  0  0
   -0.8285    1.6737    0.0137 C   0  0  0  0  0  0  0  0  0  0  0  0
    0.4838    1.1662    0.4405 N   0  0  0  0  0  0  0  0  0  0  0  0
    0.4705    0.0144   -1.3776 H   0  0  0  0  0  0  0  0  0  0  0  0
    0.9772   -1.2259    1.4175 H   0  0  0  0  0  0  0  0  0  0  0  0
    1.1046   -2.1451   -0.1166 H   0  0  0  0  0  0  0  0  0  0  0  0
   -1.0530   -2.4862    1.0150 H   0  0  0  0  0  0  0  0  0  0  0  0
   -1.2603   -1.8358   -0.6287 H   0  0  0  0  0  0  0  0  0  0  0  0
   -2.5973   -0.8556    1.2704 H   0  0  0  0  0  0  0  0  0  0  0  0
   -2.8961    1.0934    0.2345 H   0  0  0  0  0  0  0  0  0  0  0  0
   -2.0450    0.1933   -1.0349 H   0  0  0  0  0  0  0  0  0  0  0  0
   -1.1342    2.4739    0.7229 H   0  0  0  0  0  0  0  0  0  0  0  0
   -0.7495    2.1423   -0.9931 H   0  0  0  0  0  0  0  0  0  0  0  0
    1.1508    1.9708    0.3796 H   0  0  0  0  0  0  0  0  0  0  0  0
  1  2  1  0
  2  3  1  0
  2  4  1  0
  2  5  1  0
  5  6  1  0
  6  7  1  0
  7  8  1  0
  8  9  1  0
  9 10  1  0
 10 11  1  0
 11  5  1  0
  5 12  1  0
  6 13  1  0
  6 14  1  0
  7 15  1  0
  7 16  1  0
  8 17  1  0
  9 18  1  0
  9 19  1  0
 10 20  1  0
 10 21  1  0
 11 22  1  0
M  END
