
     RDKit          3D

 19 19  0  0  0  0  0  0  0  0999 V2000
    2.8014   -0.2373    0.6642 F   0  0  0  0  0  0  0  0  0  0  0  0
    1.6389   -0.1784   -0.0854 C   0  0  0  0  0  0  0  0  0  0  0  0
    1.9519   -0.5208   -1.3912 F   0  0  0  0  0  0  0  0  0  0  0  0
    0.6387   -1.1914    0.4836 C   0  0  0  0  0  0  0  0  0  0  0  0
   -0.4932   -1.3475   -0.4401 N   0  0  0  0  0  0  0  0  0  0  0  0
   -1.6514   -0.5213   -0.0712 C   0  0  0  0  0  0  0  0  0  0  0  0
   -1.3167    0.9740    0.1160 C   0  0  0  0  0  0  0  0  0  0  0  0
   -0.1910    1.4305   -0.7159 N   0  0  0  0  0  0  0  0  0  0  0  0
    1.1103    1.2664   -0.0459 C   0  0  0  0  0  0  0  0  0  0  0  0
    1.1641   -2.1678    0.5837 H   0  0  0  0  0  0  0  0  0  0  0  0
    0.3110   -0.8976    1.5069 H   0  0  0  0  0  0  0  0  0  0  0  0
   -0.8044   -2.3471   -0.4147 H   0  0  0  0  0  0  0  0  0  0  0  0
   -2.4076   -0.6114   -0.8811 H   0  0  0  0  0  0  0  0  0  0  0  0
   -2.1211   -0.9131    0.8590 H   0  0  0  0  0  0  0  0  0  0  0  0
   -2.2141    1.5702   -0.1553 H   0  0  0  0  0  0  0  0  0  0  0  0
   -1.1334    1.1841    1.1933 H   0  0  0  0  0  0  0  0  0  0  0  0
   -0.1948    0.9625   -1.6526 H   0  0  0  0  0  0  0  0  0  0  0  0
    1.0630    1.6267    1.0059 H   0  0  0  0  0  0  0  0  0  0  0  0
    1.8485    1.9192   -0.5592 H   0  0  0  0  0  0  0  0  0  0  0  0
  1  2  1  0
  2  3  1  0
  2  4  1  0
  4  5  1  0
  5  6  1  0
  6  7  1  0
  7  8  1  0
  8  9  1  0
  9  2  1  0
  4 10  1  0
  4 11  1  0
  5 12  1  0
  6 13  1  0
  6 14  1  0
  7 15  1  0
  7 16  1  0
  8 17  1  0
  9 18  1  0
  9 19  1  0
M  END
