
     RDKit          3D

 23 24  0  0  0  0  0  0  0  0999 V2000
   -3.5895    0.6872   -0.2198 O   0  0  0  0  0  0  0  0  0  0  0  0
   -2.2996    0.0728   -0.6855 S   0  0  0  0  0  0  0  0  0  0  0  0
   -2.4563   -0.5165   -2.0590 O   0  0  0  0  0  0  0  0  0  0  0  0
   -0.9674    1.2353   -0.6277 C   0  0  0  0  0  0  0  0  0  0  0  0
   -0.1277    0.7966    0.5814 C   0  0  2  0  0  0  0  0  0  0  0  0
    1.2677    1.2738    0.5375 N   0  0  0  0  0  0  0  0  0  0  0  0
    2.1160    0.5106   -0.3846 C   0  0  0  0  0  0  0  0  0  0  0  0
    2.0307   -0.9847   -0.0786 C   0  0  0  0  0  0  0  0  0  0  0  0
    0.6496   -1.4555   -0.2054 N   0  0  0  0  0  0  0  0  0  0  0  0
   -0.2340   -0.7440    0.7360 C   0  0  2  0  0  0  0  0  0  0  0  0
   -1.6970   -1.1263    0.4728 C   0  0  0  0  0  0  0  0  0  0  0  0
   -1.3523    2.2684   -0.4926 H   0  0  0  0  0  0  0  0  0  0  0  0
   -0.3948    1.1746   -1.5750 H   0  0  0  0  0  0  0  0  0  0  0  0
   -0.6010    1.2444    1.4845 H   0  0  0  0  0  0  0  0  0  0  0  0
    1.2787    2.2796    0.2467 H   0  0  0  0  0  0  0  0  0  0  0  0
    1.8302    0.7042   -1.4410 H   0  0  0  0  0  0  0  0  0  0  0  0
    3.1697    0.8399   -0.2586 H   0  0  0  0  0  0  0  0  0  0  0  0
    2.4099   -1.1871    0.9476 H   0  0  0  0  0  0  0  0  0  0  0  0
    2.6740   -1.5424   -0.7929 H   0  0  0  0  0  0  0  0  0  0  0  0
    0.3330   -1.2896   -1.1904 H   0  0  0  0  0  0  0  0  0  0  0  0
    0.0364   -1.0376    1.7753 H   0  0  0  0  0  0  0  0  0  0  0  0
   -2.2835   -1.0473    1.4132 H   0  0  0  0  0  0  0  0  0  0  0  0
   -1.7929   -2.1562    0.0671 H   0  0  0  0  0  0  0  0  0  0  0  0
  1  2  2  0
  2  3  2  0
  2  4  1  0
  4  5  1  0
  5  6  1  0
  6  7  1  0
  7  8  1  0
  8  9  1  0
  9 10  1  0
 10 11  1  0
 11  2  1  0
 10  5  1  0
  4 12  1  0
  4 13  1  0
  5 14  1  1
  6 15  1  0
  7 16  1  0
  7 17  1  0
  8 18  1  0
  8 19  1  0
  9 20  1  0
 10 21  1  1
 11 22  1  0
 11 23  1  0
M  END
