
     RDKit          3D

 10 10  0  0  0  0  0  0  0  0999 V2000
   -0.0081   -1.2523   -0.6392 C   0  0  0  0  0  2  0  0  0  0  0  0
    1.0669   -0.2612   -0.2306 C   0  0  0  0  0  0  0  0  0  0  0  0
    0.0043    0.6629    0.3383 C   0  0  0  0  0  0  0  0  0  0  0  0
   -1.0707   -0.3291   -0.0706 C   0  0  0  0  0  0  0  0  0  0  0  0
    1.5892    0.1715   -1.1108 H   0  0  0  0  0  0  0  0  0  0  0  0
    1.7403   -0.6768    0.5495 H   0  0  0  0  0  0  0  0  0  0  0  0
    0.0832    0.7775    1.4417 H   0  0  0  0  0  0  0  0  0  0  0  0
   -0.0678    1.6244   -0.2158 H   0  0  0  0  0  0  0  0  0  0  0  0
   -1.7443    0.0657   -0.8614 H   0  0  0  0  0  0  0  0  0  0  0  0
   -1.5931   -0.7827    0.7990 H   0  0  0  0  0  0  0  0  0  0  0  0
  1  2  1  0
  2  3  1  0
  3  4  1  0
  4  1  1  0
  2  5  1  0
  2  6  1  0
  3  7  1  0
  3  8  1  0
  4  9  1  0
  4 10  1  0
M  RAD  1   1   3
M  END
