
     RDKit          3D

  8  8  0  0  0  0  0  0  0  0999 V2000
    0.0081    0.0615    1.1211 C   0  0  0  0  0  2  0  0  0  0  0  0
   -0.9994    0.0213    0.0048 C   0  0  0  0  0  0  0  0  0  0  0  0
   -0.0071   -0.0542   -0.9872 O   0  0  0  0  0  0  0  0  0  0  0  0
    0.9994   -0.0215   -0.0072 C   0  0  0  0  0  0  0  0  0  0  0  0
   -1.5816    0.9650   -0.0746 H   0  0  0  0  0  0  0  0  0  0  0  0
   -1.6209   -0.9000    0.0281 H   0  0  0  0  0  0  0  0  0  0  0  0
    1.6204    0.8964   -0.0939 H   0  0  0  0  0  0  0  0  0  0  0  0
    1.5811   -0.9686    0.0088 H   0  0  0  0  0  0  0  0  0  0  0  0
  1  2  1  0
  2  3  1  0
  3  4  1  0
  4  1  1  0
  2  5  1  0
  2  6  1  0
  4  7  1  0
  4  8  1  0
M  RAD  1   1   3
M  END
