
     RDKit          3D

 26 27  0  0  0  0  0  0  0  0999 V2000
   -4.2564    0.4220   -0.8568 C   0  0  0  0  0  0  0  0  0  0  0  0
   -2.9055    0.2257   -0.2353 C   0  0  0  0  0  0  0  0  0  0  0  0
   -2.3178    1.2531    0.5185 C   0  0  0  0  0  0  0  0  0  0  0  0
   -1.0425    1.0843    1.0660 C   0  0  0  0  0  0  0  0  0  0  0  0
   -0.3379   -0.1086    0.8592 C   0  0  0  0  0  0  0  0  0  0  0  0
    1.2758   -0.3013    1.5369 S   0  0  0  0  0  0  0  0  0  0  0  0
    1.6426   -1.7608    1.5773 O   0  0  0  0  0  0  0  0  0  0  0  0
    1.2844    0.2329    2.9420 O   0  0  0  0  0  0  0  0  0  0  0  0
    2.4164    0.6006    0.5655 N   0  0  0  0  0  0  0  0  0  0  0  0
    2.6493   -0.0650   -0.7207 C   0  0  0  0  0  0  0  0  0  0  0  0
    4.0733   -0.4465   -0.3670 C   0  0  0  0  0  0  0  0  0  0  0  0
    3.7959    0.2713    0.9394 C   0  0  0  0  0  0  0  0  0  0  0  0
   -0.9130   -1.1269    0.0862 C   0  0  0  0  0  0  0  0  0  0  0  0
   -2.1882   -0.9590   -0.4620 C   0  0  0  0  0  0  0  0  0  0  0  0
   -4.8825    1.0918   -0.2296 H   0  0  0  0  0  0  0  0  0  0  0  0
   -4.1374    0.8747   -1.8632 H   0  0  0  0  0  0  0  0  0  0  0  0
   -4.7865   -0.5491   -0.9565 H   0  0  0  0  0  0  0  0  0  0  0  0
   -2.8458    2.1847    0.6813 H   0  0  0  0  0  0  0  0  0  0  0  0
   -0.6020    1.8857    1.6457 H   0  0  0  0  0  0  0  0  0  0  0  0
    2.6253    0.6728   -1.5512 H   0  0  0  0  0  0  0  0  0  0  0  0
    1.9983   -0.9467   -0.9191 H   0  0  0  0  0  0  0  0  0  0  0  0
    4.1408   -1.5426   -0.1917 H   0  0  0  0  0  0  0  0  0  0  0  0
    4.4070    1.1951    1.0272 H   0  0  0  0  0  0  0  0  0  0  0  0
    3.8963   -0.3893    1.8309 H   0  0  0  0  0  0  0  0  0  0  0  0
   -0.3745   -2.0472   -0.0994 H   0  0  0  0  0  0  0  0  0  0  0  0
   -2.6152   -1.7518   -1.0638 H   0  0  0  0  0  0  0  0  0  0  0  0
  1  2  1  0
  2  3  2  0
  3  4  1  0
  4  5  2  0
  5  6  1  0
  6  7  2  0
  6  8  2  0
  6  9  1  0
  9 10  1  0
 10 11  1  0
 11 12  1  0
  5 13  1  0
 13 14  2  0
 14  2  1  0
 12  9  1  0
  1 15  1  0
  1 16  1  0
  1 17  1  0
  3 18  1  0
  4 19  1  0
 10 20  1  0
 10 21  1  0
 11 22  1  0
 12 23  1  0
 12 24  1  0
 13 25  1  0
 14 26  1  0
M  CHG  1  11  -1
M  END
