
     RDKit          3D

 25 26  0  0  0  0  0  0  0  0999 V2000
    3.4775    1.0183    1.5741 C   0  0  0  0  0  0  0  0  0  0  0  0
    2.2540    0.4066    0.9587 C   0  0  0  0  0  0  0  0  0  0  0  0
    2.1001    0.3832   -0.4354 C   0  0  0  0  0  0  0  0  0  0  0  0
    0.9777   -0.2196   -1.0106 C   0  0  0  0  0  0  0  0  0  0  0  0
   -0.0045   -0.8077   -0.2002 C   0  0  0  0  0  0  0  0  0  0  0  0
   -1.4191   -1.5838   -0.9303 S   0  0  0  0  0  0  0  0  0  0  0  0
   -1.8426   -2.7350   -0.0613 O   0  0  0  0  0  0  0  0  0  0  0  0
   -1.0296   -2.1365   -2.2728 O   0  0  0  0  0  0  0  0  0  0  0  0
   -2.7850   -0.5058   -1.1407 N   0  0  0  0  0  0  0  0  0  0  0  0
   -3.0696    0.2497    0.0827 C   0  0  0  0  0  0  0  0  0  0  0  0
   -2.6415    1.5669   -0.5271 C   0  0  0  0  0  2  0  0  0  0  0  0
   -2.3859    0.7529   -1.7770 C   0  0  0  0  0  0  0  0  0  0  0  0
    0.1680   -0.8156    1.1917 C   0  0  0  0  0  0  0  0  0  0  0  0
    1.2902   -0.2131    1.7679 C   0  0  0  0  0  0  0  0  0  0  0  0
    3.2497    1.4164    2.5859 H   0  0  0  0  0  0  0  0  0  0  0  0
    3.8509    1.8587    0.9508 H   0  0  0  0  0  0  0  0  0  0  0  0
    4.2726    0.2485    1.6581 H   0  0  0  0  0  0  0  0  0  0  0  0
    2.8498    0.8294   -1.0772 H   0  0  0  0  0  0  0  0  0  0  0  0
    0.8788   -0.2302   -2.0884 H   0  0  0  0  0  0  0  0  0  0  0  0
   -4.1584    0.2428    0.3040 H   0  0  0  0  0  0  0  0  0  0  0  0
   -2.4556   -0.0293    0.9635 H   0  0  0  0  0  0  0  0  0  0  0  0
   -1.3274    0.8011   -2.1054 H   0  0  0  0  0  0  0  0  0  0  0  0
   -3.0954    1.0252   -2.5876 H   0  0  0  0  0  0  0  0  0  0  0  0
   -0.5628   -1.2913    1.8329 H   0  0  0  0  0  0  0  0  0  0  0  0
    1.4081   -0.2318    2.8443 H   0  0  0  0  0  0  0  0  0  0  0  0
  1  2  1  0
  2  3  2  0
  3  4  1  0
  4  5  2  0
  5  6  1  0
  6  7  2  0
  6  8  2  0
  6  9  1  0
  9 10  1  0
 10 11  1  0
 11 12  1  0
  5 13  1  0
 13 14  2  0
 14  2  1  0
 12  9  1  0
  1 15  1  0
  1 16  1  0
  1 17  1  0
  3 18  1  0
  4 19  1  0
 10 20  1  0
 10 21  1  0
 12 22  1  0
 12 23  1  0
 13 24  1  0
 14 25  1  0
M  RAD  1  11   3
M  END
