
     RDKit          3D

 26 27  0  0  0  0  0  0  0  0999 V2000
    4.3149   -1.1011    0.3427 C   0  0  0  0  0  0  0  0  0  0  0  0
    2.9124   -0.6710    0.0298 C   0  0  0  0  0  0  0  0  0  0  0  0
    2.5593    0.6859    0.0872 C   0  0  0  0  0  0  0  0  0  0  0  0
    1.2615    1.0907   -0.2394 C   0  0  0  0  0  0  0  0  0  0  0  0
    0.3085    0.1468   -0.6435 C   0  0  0  0  0  0  0  0  0  0  0  0
   -1.3281    0.6657   -1.0352 S   0  0  0  0  0  0  0  0  0  0  0  0
   -1.2623    1.9436   -1.8239 O   0  0  0  0  0  0  0  0  0  0  0  0
   -2.0076   -0.3814   -1.8770 O   0  0  0  0  0  0  0  0  0  0  0  0
   -2.2100    0.9449    0.4498 N   0  0  0  0  0  0  0  0  0  0  0  0
   -2.5672   -0.3094    1.0879 C   0  0  0  0  0  0  0  0  0  0  0  0
   -4.0525   -0.1936    0.8382 C   0  0  0  0  0  0  0  0  0  0  0  0
   -3.6295    1.1040    0.1905 C   0  0  0  0  0  0  0  0  0  0  0  0
    0.6622   -1.2078   -0.7126 C   0  0  0  0  0  0  0  0  0  0  0  0
    1.9596   -1.6137   -0.3859 C   0  0  0  0  0  0  0  0  0  0  0  0
    4.7710   -0.4289    1.1004 H   0  0  0  0  0  0  0  0  0  0  0  0
    4.3261   -2.1346    0.7499 H   0  0  0  0  0  0  0  0  0  0  0  0
    4.9256   -1.0701   -0.5836 H   0  0  0  0  0  0  0  0  0  0  0  0
    3.2871    1.4297    0.3871 H   0  0  0  0  0  0  0  0  0  0  0  0
    1.0003    2.1396   -0.1783 H   0  0  0  0  0  0  0  0  0  0  0  0
   -2.1396   -1.2190    0.6091 H   0  0  0  0  0  0  0  0  0  0  0  0
   -2.3412   -0.2767    2.1759 H   0  0  0  0  0  0  0  0  0  0  0  0
   -4.9623   -0.7457    1.0460 H   0  0  0  0  0  0  0  0  0  0  0  0
   -4.0362    1.9776    0.7450 H   0  0  0  0  0  0  0  0  0  0  0  0
   -3.9092    1.1374   -0.8869 H   0  0  0  0  0  0  0  0  0  0  0  0
   -0.0632   -1.9506   -1.0186 H   0  0  0  0  0  0  0  0  0  0  0  0
    2.2201   -2.6628   -0.4546 H   0  0  0  0  0  0  0  0  0  0  0  0
  1  2  1  0
  2  3  2  0
  3  4  1  0
  4  5  2  0
  5  6  1  0
  6  7  2  0
  6  8  2  0
  6  9  1  0
  9 10  1  0
 10 11  1  0
 11 12  1  0
  5 13  1  0
 13 14  2  0
 14  2  1  0
 12  9  1  0
  1 15  1  0
  1 16  1  0
  1 17  1  0
  3 18  1  0
  4 19  1  0
 10 20  1  0
 10 21  1  0
 11 22  1  0
 12 23  1  0
 12 24  1  0
 13 25  1  0
 14 26  1  0
M  CHG  1  11   1
M  END
