
     RDKit          3D

 44 46  0  0  0  0  0  0  0  0999 V2000
    5.6544   -0.0719   -0.1876 C   0  0  0  0  0  0  0  0  0  0  0  0
    4.5978   -0.5589    0.6334 O   0  0  0  0  0  0  0  0  0  0  0  0
    3.2335   -0.4412    0.3264 C   0  0  0  0  0  0  0  0  0  0  0  0
    2.7762    0.1819   -0.8476 C   0  0  0  0  0  0  0  0  0  0  0  0
    1.3981    0.2800   -1.1150 C   0  0  0  0  0  0  0  0  0  0  0  0
    0.9102    0.8974   -2.2791 O   0  0  0  0  0  0  0  0  0  0  0  0
    1.7259    1.4771   -3.2918 C   0  0  0  0  0  0  0  0  0  0  0  0
    0.4772   -0.2501   -0.1959 C   0  0  0  0  0  0  0  0  0  0  0  0
   -1.2464   -0.1209   -0.5363 S   0  0  0  0  0  0  0  0  0  0  0  0
   -2.0736    1.1150    0.3934 C   0  0  0  0  0  0  0  0  0  0  0  0
   -2.4285    0.8851    1.7290 C   0  0  0  0  0  0  0  0  0  0  0  0
   -3.0885    1.8783    2.4593 C   0  0  0  0  0  0  0  0  0  0  0  0
   -3.3984    3.1027    1.8566 C   0  0  0  0  0  0  0  0  0  0  0  0
   -4.2266    4.3480    2.7731 Cl  0  0  0  0  0  0  0  0  0  0  0  0
   -3.0497    3.3309    0.5206 C   0  0  0  0  0  0  0  0  0  0  0  0
   -2.3900    2.3379   -0.2103 C   0  0  0  0  0  0  0  0  0  0  0  0
   -2.1113   -1.6811   -0.6340 C   0  0  0  0  0  0  0  0  0  0  0  0
   -3.3720   -1.6076   -1.4601 C   0  0  0  0  0  0  0  0  0  0  0  0
   -2.8403   -2.4342   -2.4678 O   0  0  0  0  0  0  0  0  0  0  0  0
   -1.6275   -2.5567   -1.7638 C   0  0  0  0  0  0  0  0  0  0  0  0
    0.9249   -0.8823    0.9771 C   0  0  0  0  0  0  0  0  0  0  0  0
   -0.0221   -1.4183    1.8638 O   0  0  0  0  0  0  0  0  0  0  0  0
    0.2925   -2.0763    3.0862 C   0  0  0  0  0  0  0  0  0  0  0  0
    2.3062   -0.9681    1.2286 C   0  0  0  0  0  0  0  0  0  0  0  0
    5.5681    1.0287   -0.3083 H   0  0  0  0  0  0  0  0  0  0  0  0
    6.6253   -0.3007    0.2976 H   0  0  0  0  0  0  0  0  0  0  0  0
    5.6273   -0.5694   -1.1801 H   0  0  0  0  0  0  0  0  0  0  0  0
    3.4891    0.5888   -1.5488 H   0  0  0  0  0  0  0  0  0  0  0  0
    2.3878    0.7049   -3.7376 H   0  0  0  0  0  0  0  0  0  0  0  0
    1.0744    1.8893   -4.0893 H   0  0  0  0  0  0  0  0  0  0  0  0
    2.3329    2.3040   -2.8665 H   0  0  0  0  0  0  0  0  0  0  0  0
   -2.2069   -0.0618    2.2015 H   0  0  0  0  0  0  0  0  0  0  0  0
   -3.3607    1.6945    3.4908 H   0  0  0  0  0  0  0  0  0  0  0  0
   -3.2890    4.2754    0.0487 H   0  0  0  0  0  0  0  0  0  0  0  0
   -2.1229    2.5222   -1.2434 H   0  0  0  0  0  0  0  0  0  0  0  0
   -2.2342   -2.2138    0.3334 H   0  0  0  0  0  0  0  0  0  0  0  0
   -4.2386   -2.0942   -0.9611 H   0  0  0  0  0  0  0  0  0  0  0  0
   -3.6057   -0.5945   -1.8565 H   0  0  0  0  0  0  0  0  0  0  0  0
   -1.4555   -3.6083   -1.4453 H   0  0  0  0  0  0  0  0  0  0  0  0
   -0.7817   -2.1312   -2.3485 H   0  0  0  0  0  0  0  0  0  0  0  0
   -0.6497   -2.3906    3.5799 H   0  0  0  0  0  0  0  0  0  0  0  0
    0.9076   -2.9790    2.8866 H   0  0  0  0  0  0  0  0  0  0  0  0
    0.8348   -1.3837    3.7638 H   0  0  0  0  0  0  0  0  0  0  0  0
    2.6758   -1.4475    2.1249 H   0  0  0  0  0  0  0  0  0  0  0  0
  1  2  1  0
  2  3  1  0
  3  4  2  0
  4  5  1  0
  5  6  1  0
  6  7  1  0
  5  8  2  0
  8  9  1  0
  9 10  1  0
 10 11  2  0
 11 12  1  0
 12 13  2  0
 13 14  1  0
 13 15  1  0
 15 16  2  0
  9 17  1  0
 17 18  1  0
 18 19  1  0
 19 20  1  0
  8 21  1  0
 21 22  1  0
 22 23  1  0
 21 24  2  0
 24  3  1  0
 16 10  1  0
 20 17  1  0
  1 25  1  0
  1 26  1  0
  1 27  1  0
  4 28  1  0
  7 29  1  0
  7 30  1  0
  7 31  1  0
 11 32  1  0
 12 33  1  0
 15 34  1  0
 16 35  1  0
 17 36  1  0
 18 37  1  0
 18 38  1  0
 20 39  1  0
 20 40  1  0
 23 41  1  0
 23 42  1  0
 23 43  1  0
 24 44  1  0
M  CHG  1   9   1
M  END
