
     RDKit          3D

 35 36  0  0  0  0  0  0  0  0999 V2000
   -4.0119    2.0490   -1.3548 C   0  0  0  0  0  0  0  0  0  0  0  0
   -3.5561    1.3060   -0.2288 O   0  0  0  0  0  0  0  0  0  0  0  0
   -2.4326    0.4652   -0.2330 C   0  0  0  0  0  0  0  0  0  0  0  0
   -2.1030   -0.2019    0.9496 C   0  0  0  0  0  0  0  0  0  0  0  0
   -0.9874   -1.0565    1.0088 C   0  0  0  0  0  0  0  0  0  0  0  0
   -0.6400   -1.7429    2.1837 O   0  0  0  0  0  0  0  0  0  0  0  0
   -1.3356   -1.6324    3.4208 C   0  0  0  0  0  0  0  0  0  0  0  0
   -0.1936   -1.2325   -0.1369 C   0  0  0  0  0  0  0  0  0  0  0  0
    1.2484   -2.3093   -0.0684 S   0  0  0  0  0  0  0  0  0  0  0  0
    2.3467   -0.9780    0.4226 C   0  0  0  0  0  0  0  0  0  0  0  0
    3.0135   -0.2221   -0.5502 C   0  0  0  0  0  0  0  0  0  0  0  0
    3.8640    0.8197   -0.1674 C   0  0  0  0  0  0  0  0  0  0  0  0
    4.0557    1.1055    1.1891 C   0  0  0  0  0  0  0  0  0  0  0  0
    5.1220    2.4130    1.6689 Cl  0  0  0  0  0  0  0  0  0  0  0  0
    3.3982    0.3447    2.1625 C   0  0  0  0  0  0  0  0  0  0  0  0
    2.5476   -0.6973    1.7803 C   0  0  0  0  0  0  0  0  0  0  0  0
   -0.5188   -0.5775   -1.3367 C   0  0  0  0  0  0  0  0  0  0  0  0
    0.2901   -0.7948   -2.4641 O   0  0  0  0  0  0  0  0  0  0  0  0
    0.0978   -0.1747   -3.7311 C   0  0  0  0  0  0  0  0  0  0  0  0
   -1.6386    0.2739   -1.3773 C   0  0  0  0  0  0  0  0  0  0  0  0
   -3.2264    2.7607   -1.6861 H   0  0  0  0  0  0  0  0  0  0  0  0
   -4.2793    1.3604   -2.1840 H   0  0  0  0  0  0  0  0  0  0  0  0
   -4.9147    2.6256   -1.0672 H   0  0  0  0  0  0  0  0  0  0  0  0
   -2.7269   -0.0468    1.8193 H   0  0  0  0  0  0  0  0  0  0  0  0
   -0.8365   -2.2746    4.1750 H   0  0  0  0  0  0  0  0  0  0  0  0
   -1.3130   -0.5814    3.7786 H   0  0  0  0  0  0  0  0  0  0  0  0
   -2.3851   -1.9747    3.3010 H   0  0  0  0  0  0  0  0  0  0  0  0
    2.8737   -0.4388   -1.6013 H   0  0  0  0  0  0  0  0  0  0  0  0
    4.3731    1.4027   -0.9243 H   0  0  0  0  0  0  0  0  0  0  0  0
    3.5459    0.5590    3.2132 H   0  0  0  0  0  0  0  0  0  0  0  0
    2.0458   -1.2831    2.5395 H   0  0  0  0  0  0  0  0  0  0  0  0
    0.8885   -0.5217   -4.4273 H   0  0  0  0  0  0  0  0  0  0  0  0
   -0.8918   -0.4567   -4.1484 H   0  0  0  0  0  0  0  0  0  0  0  0
    0.1723    0.9288   -3.6311 H   0  0  0  0  0  0  0  0  0  0  0  0
   -1.8919    0.7836   -2.2947 H   0  0  0  0  0  0  0  0  0  0  0  0
  1  2  1  0
  2  3  1  0
  3  4  2  0
  4  5  1  0
  5  6  1  0
  6  7  1  0
  5  8  2  0
  8  9  1  0
  9 10  1  0
 10 11  2  0
 11 12  1  0
 12 13  2  0
 13 14  1  0
 13 15  1  0
 15 16  2  0
  8 17  1  0
 17 18  1  0
 18 19  1  0
 17 20  2  0
 20  3  1  0
 16 10  1  0
  1 21  1  0
  1 22  1  0
  1 23  1  0
  4 24  1  0
  7 25  1  0
  7 26  1  0
  7 27  1  0
 11 28  1  0
 12 29  1  0
 15 30  1  0
 16 31  1  0
 19 32  1  0
 19 33  1  0
 19 34  1  0
 20 35  1  0
M  END
