
     RDKit          3D

 61 64  0  0  0  0  0  0  0  0999 V2000
   -7.2290    1.9831   -1.3653 C   0  0  0  0  0  0  0  0  0  0  0  0
   -6.3901    2.0941   -0.2201 O   0  0  0  0  0  0  0  0  0  0  0  0
   -5.1293    1.4904   -0.0966 C   0  0  0  0  0  0  0  0  0  0  0  0
   -4.4148    1.6906    1.0869 C   0  0  0  0  0  0  0  0  0  0  0  0
   -3.1466    1.1112    1.2707 C   0  0  0  0  0  0  0  0  0  0  0  0
   -2.4093    1.2997    2.4516 O   0  0  0  0  0  0  0  0  0  0  0  0
   -2.8421    2.0820    3.5593 C   0  0  0  0  0  0  0  0  0  0  0  0
   -2.5963    0.3197    0.2491 C   0  0  0  0  0  0  0  0  0  0  0  0
   -1.0059   -0.4003    0.4839 S   0  0  0  0  0  0  0  0  0  0  0  0
   -1.0321   -2.1161    0.8463 C   0  0  0  0  0  0  0  0  0  0  0  0
   -1.2308   -3.0573   -0.1716 C   0  0  0  0  0  0  0  0  0  0  0  0
   -1.2465   -4.4225    0.1303 C   0  0  0  0  0  0  0  0  0  0  0  0
   -1.0595   -4.8515    1.4489 C   0  0  0  0  0  0  0  0  0  0  0  0
   -1.0776   -6.5643    1.8266 Cl  0  0  0  0  0  0  0  0  0  0  0  0
   -0.8540   -3.9122    2.4652 C   0  0  0  0  0  0  0  0  0  0  0  0
   -0.8388   -2.5468    2.1640 C   0  0  0  0  0  0  0  0  0  0  0  0
    0.2215    0.0876   -0.7186 C   0  0  0  0  0  0  0  0  0  0  0  0
    1.6449   -0.0939   -0.2228 C   0  0  0  0  0  0  0  0  0  0  0  0
    1.9083    1.3513   -0.2136 N   0  0  0  0  0  0  0  0  0  0  0  0
    3.0671    1.7822   -1.4498 S   0  0  0  0  0  0  0  0  0  0  0  0
    2.6825    1.1835   -2.7764 O   0  0  0  0  0  0  0  0  0  0  0  0
    3.1107    3.2777   -1.5940 O   0  0  0  0  0  0  0  0  0  0  0  0
    4.6599    1.2039   -0.9711 C   0  0  0  0  0  0  0  0  0  0  0  0
    5.3822    1.8885    0.0143 C   0  0  0  0  0  0  0  0  0  0  0  0
    6.6406    1.4279    0.4129 C   0  0  0  0  0  0  0  0  0  0  0  0
    7.1824    0.2665   -0.1588 C   0  0  0  0  0  0  0  0  0  0  0  0
    8.5483   -0.2063    0.2409 C   0  0  0  0  0  0  0  0  0  0  0  0
    6.4625   -0.4113   -1.1542 C   0  0  0  0  0  0  0  0  0  0  0  0
    5.2042    0.0502   -1.5521 C   0  0  0  0  0  0  0  0  0  0  0  0
    0.5338    1.5733   -0.6818 C   0  0  0  0  0  0  0  0  0  0  0  0
   -3.2993    0.1158   -0.9513 C   0  0  0  0  0  0  0  0  0  0  0  0
   -2.7083   -0.6627   -1.9590 O   0  0  0  0  0  0  0  0  0  0  0  0
   -3.3040   -0.9493   -3.2197 C   0  0  0  0  0  0  0  0  0  0  0  0
   -4.5686    0.7012   -1.1156 C   0  0  0  0  0  0  0  0  0  0  0  0
   -8.1592    2.5609   -1.1902 H   0  0  0  0  0  0  0  0  0  0  0  0
   -7.4985    0.9201   -1.5399 H   0  0  0  0  0  0  0  0  0  0  0  0
   -6.7149    2.3993   -2.2573 H   0  0  0  0  0  0  0  0  0  0  0  0
   -4.8600    2.3024    1.8598 H   0  0  0  0  0  0  0  0  0  0  0  0
   -3.7836    1.6667    3.9760 H   0  0  0  0  0  0  0  0  0  0  0  0
   -2.0630    2.0547    4.3480 H   0  0  0  0  0  0  0  0  0  0  0  0
   -2.9934    3.1359    3.2457 H   0  0  0  0  0  0  0  0  0  0  0  0
   -1.3614   -2.7391   -1.1965 H   0  0  0  0  0  0  0  0  0  0  0  0
   -1.4005   -5.1449   -0.6607 H   0  0  0  0  0  0  0  0  0  0  0  0
   -0.7058   -4.2385    3.4865 H   0  0  0  0  0  0  0  0  0  0  0  0
   -0.6791   -1.8261    2.9559 H   0  0  0  0  0  0  0  0  0  0  0  0
    0.0519   -0.3094   -1.7427 H   0  0  0  0  0  0  0  0  0  0  0  0
    2.2684   -0.6757   -0.9384 H   0  0  0  0  0  0  0  0  0  0  0  0
    1.7093   -0.5058    0.8083 H   0  0  0  0  0  0  0  0  0  0  0  0
    4.9714    2.7788    0.4734 H   0  0  0  0  0  0  0  0  0  0  0  0
    7.1906    1.9750    1.1684 H   0  0  0  0  0  0  0  0  0  0  0  0
    9.3098    0.2761   -0.4063 H   0  0  0  0  0  0  0  0  0  0  0  0
    8.7575    0.0519    1.3009 H   0  0  0  0  0  0  0  0  0  0  0  0
    8.6282   -1.3089    0.1346 H   0  0  0  0  0  0  0  0  0  0  0  0
    6.8737   -1.2982   -1.6203 H   0  0  0  0  0  0  0  0  0  0  0  0
    4.6576   -0.4933   -2.3116 H   0  0  0  0  0  0  0  0  0  0  0  0
    0.4558    2.0462   -1.6869 H   0  0  0  0  0  0  0  0  0  0  0  0
   -0.0497    2.1327    0.0823 H   0  0  0  0  0  0  0  0  0  0  0  0
   -4.2575   -1.4999   -3.0749 H   0  0  0  0  0  0  0  0  0  0  0  0
   -3.4847   -0.0075   -3.7796 H   0  0  0  0  0  0  0  0  0  0  0  0
   -2.6131   -1.5858   -3.8096 H   0  0  0  0  0  0  0  0  0  0  0  0
   -5.1158    0.5466   -2.0333 H   0  0  0  0  0  0  0  0  0  0  0  0
  1  2  1  0
  2  3  1  0
  3  4  2  0
  4  5  1  0
  5  6  1  0
  6  7  1  0
  5  8  2  0
  8  9  1  0
  9 10  1  0
 10 11  2  0
 11 12  1  0
 12 13  2  0
 13 14  1  0
 13 15  1  0
 15 16  2  0
  9 17  1  0
 17 18  1  0
 18 19  1  0
 19 20  1  0
 20 21  2  0
 20 22  2  0
 20 23  1  0
 23 24  2  0
 24 25  1  0
 25 26  2  0
 26 27  1  0
 26 28  1  0
 28 29  2  0
 19 30  1  0
  8 31  1  0
 31 32  1  0
 32 33  1  0
 31 34  2  0
 34  3  1  0
 16 10  1  0
 30 17  1  0
 29 23  1  0
  1 35  1  0
  1 36  1  0
  1 37  1  0
  4 38  1  0
  7 39  1  0
  7 40  1  0
  7 41  1  0
 11 42  1  0
 12 43  1  0
 15 44  1  0
 16 45  1  0
 17 46  1  0
 18 47  1  0
 18 48  1  0
 24 49  1  0
 25 50  1  0
 27 51  1  0
 27 52  1  0
 27 53  1  0
 28 54  1  0
 29 55  1  0
 30 56  1  0
 30 57  1  0
 33 58  1  0
 33 59  1  0
 33 60  1  0
 34 61  1  0
M  CHG  1   9   1
M  END
