
     RDKit          3D

 35 36  0  0  0  0  0  0  0  0999 V2000
   -4.0801   -2.1309    0.9504 C   0  0  0  0  0  0  0  0  0  0  0  0
   -3.6273   -1.0958    0.0836 O   0  0  0  0  0  0  0  0  0  0  0  0
   -2.4371   -0.3739    0.2615 C   0  0  0  0  0  0  0  0  0  0  0  0
   -1.5654   -0.6112    1.3386 C   0  0  0  0  0  0  0  0  0  0  0  0
   -0.3806    0.1353    1.4777 C   0  0  0  0  0  0  0  0  0  0  0  0
    0.5072   -0.0728    2.5460 O   0  0  0  0  0  0  0  0  0  0  0  0
    0.3348   -1.0535    3.5636 C   0  0  0  0  0  0  0  0  0  0  0  0
   -0.0694    1.1193    0.5241 C   0  0  0  0  0  0  0  0  0  0  0  0
    1.4533    2.0679    0.6822 S   0  0  0  0  0  0  0  0  0  0  0  0
    2.4039    0.8992   -0.2924 C   0  0  0  0  0  0  0  0  0  0  0  0
    3.0588   -0.1697    0.3338 C   0  0  0  0  0  0  0  0  0  0  0  0
    3.7949   -1.0832   -0.4274 C   0  0  0  0  0  0  0  0  0  0  0  0
    3.8838   -0.9277   -1.8142 C   0  0  0  0  0  0  0  0  0  0  0  0
    3.2393    0.1437   -2.4405 C   0  0  0  0  0  0  0  0  0  0  0  0
    2.5027    1.0583   -1.6811 C   0  0  0  0  0  0  0  0  0  0  0  0
   -0.9398    1.3716   -0.5494 C   0  0  0  0  0  0  0  0  0  0  0  0
   -0.6025    2.3758   -1.4713 O   0  0  0  0  0  0  0  0  0  0  0  0
   -1.3750    2.7136   -2.6184 C   0  0  0  0  0  0  0  0  0  0  0  0
   -2.1196    0.6157   -0.6724 C   0  0  0  0  0  0  0  0  0  0  0  0
   -3.3412   -2.9595    0.9744 H   0  0  0  0  0  0  0  0  0  0  0  0
   -5.0443   -2.5260    0.5701 H   0  0  0  0  0  0  0  0  0  0  0  0
   -4.2394   -1.7298    1.9736 H   0  0  0  0  0  0  0  0  0  0  0  0
   -1.8087   -1.3717    2.0653 H   0  0  0  0  0  0  0  0  0  0  0  0
    1.1908   -0.9993    4.2668 H   0  0  0  0  0  0  0  0  0  0  0  0
   -0.6014   -0.8581    4.1279 H   0  0  0  0  0  0  0  0  0  0  0  0
    0.3080   -2.0687    3.1145 H   0  0  0  0  0  0  0  0  0  0  0  0
    2.9981   -0.2947    1.4071 H   0  0  0  0  0  0  0  0  0  0  0  0
    4.2970   -1.9104    0.0574 H   0  0  0  0  0  0  0  0  0  0  0  0
    4.4538   -1.6350   -2.4026 H   0  0  0  0  0  0  0  0  0  0  0  0
    3.3115    0.2658   -3.5135 H   0  0  0  0  0  0  0  0  0  0  0  0
    2.0100    1.8870   -2.1728 H   0  0  0  0  0  0  0  0  0  0  0  0
   -2.3825    3.0649   -2.3106 H   0  0  0  0  0  0  0  0  0  0  0  0
   -1.4638    1.8343   -3.2908 H   0  0  0  0  0  0  0  0  0  0  0  0
   -0.8666    3.5313   -3.1689 H   0  0  0  0  0  0  0  0  0  0  0  0
   -2.8033    0.7883   -1.4924 H   0  0  0  0  0  0  0  0  0  0  0  0
  1  2  1  0
  2  3  1  0
  3  4  2  0
  4  5  1  0
  5  6  1  0
  6  7  1  0
  5  8  2  0
  8  9  1  0
  9 10  1  0
 10 11  2  0
 11 12  1  0
 12 13  2  0
 13 14  1  0
 14 15  2  0
  8 16  1  0
 16 17  1  0
 17 18  1  0
 16 19  2  0
 19  3  1  0
 15 10  1  0
  1 20  1  0
  1 21  1  0
  1 22  1  0
  4 23  1  0
  7 24  1  0
  7 25  1  0
  7 26  1  0
 11 27  1  0
 12 28  1  0
 13 29  1  0
 14 30  1  0
 15 31  1  0
 18 32  1  0
 18 33  1  0
 18 34  1  0
 19 35  1  0
M  END
