
     RDKit          3D

 60 63  0  0  0  0  0  0  0  0999 V2000
   -5.5010    0.7381    3.3130 C   0  0  0  0  0  0  0  0  0  0  0  0
   -4.5774   -0.3380    3.1830 O   0  0  0  0  0  0  0  0  0  0  0  0
   -3.6861   -0.4955    2.1105 C   0  0  0  0  0  0  0  0  0  0  0  0
   -3.6238    0.4160    1.0422 C   0  0  0  0  0  0  0  0  0  0  0  0
   -2.7135    0.2209   -0.0132 C   0  0  0  0  0  0  0  0  0  0  0  0
   -2.6164    1.1250   -1.0831 O   0  0  0  0  0  0  0  0  0  0  0  0
   -3.4098    2.2977   -1.2302 C   0  0  0  0  0  0  0  0  0  0  0  0
   -1.8691   -0.9030    0.0041 C   0  0  0  0  0  0  0  0  0  0  0  0
   -0.7231   -1.1745   -1.3057 S   0  0  0  0  0  0  0  0  0  0  0  0
   -1.4462   -1.8450   -2.7560 C   0  0  0  0  0  0  0  0  0  0  0  0
   -1.2687   -3.2017   -3.0529 C   0  0  0  0  0  0  0  0  0  0  0  0
   -1.8402   -3.7477   -4.2065 C   0  0  0  0  0  0  0  0  0  0  0  0
   -2.5883   -2.9379   -5.0686 C   0  0  0  0  0  0  0  0  0  0  0  0
   -3.3046   -3.6226   -6.5159 Cl  0  0  0  0  0  0  0  0  0  0  0  0
   -2.7616   -1.5803   -4.7760 C   0  0  0  0  0  0  0  0  0  0  0  0
   -2.1905   -1.0338   -3.6225 C   0  0  0  0  0  0  0  0  0  0  0  0
    0.3949    0.1888   -1.6032 C   0  0  0  0  0  0  0  0  0  0  0  0
    1.2916    0.4437   -0.4030 C   0  0  0  0  0  0  0  0  0  0  0  0
    2.4977   -0.0156   -1.1013 N   0  0  0  0  0  0  0  0  0  0  0  0
    3.6008    1.3110   -1.3845 S   0  0  0  0  0  0  0  0  0  0  0  0
    4.6793    0.8698   -2.3339 O   0  0  0  0  0  0  0  0  0  0  0  0
    2.8818    2.4872   -1.9893 O   0  0  0  0  0  0  0  0  0  0  0  0
    4.3363    1.7821    0.1445 C   0  0  0  0  0  0  0  0  0  0  0  0
    3.8808    2.9133    0.8358 C   0  0  0  0  0  0  0  0  0  0  0  0
    4.4580    3.2705    2.0581 C   0  0  0  0  0  0  0  0  0  0  0  0
    5.4853    2.4901    2.6103 C   0  0  0  0  0  0  0  0  0  0  0  0
    6.1313    2.8940    3.9023 C   0  0  0  0  0  0  0  0  0  0  0  0
    5.9473    1.3646    1.9109 C   0  0  0  0  0  0  0  0  0  0  0  0
    5.3693    1.0082    0.6888 C   0  0  0  0  0  0  0  0  0  0  0  0
    1.6710   -0.2762   -2.2853 C   0  0  0  0  0  0  0  0  0  0  0  0
   -1.9195   -1.8155    1.0705 C   0  0  0  0  0  0  0  0  0  0  0  0
   -1.0523   -2.9208    1.0565 O   0  0  0  0  0  0  0  0  0  0  0  0
   -0.9975   -3.9190    2.0701 C   0  0  0  0  0  0  0  0  0  0  0  0
   -2.8334   -1.6020    2.1181 C   0  0  0  0  0  0  0  0  0  0  0  0
   -6.2103    0.7381    2.4585 H   0  0  0  0  0  0  0  0  0  0  0  0
   -4.9567    1.7051    3.3592 H   0  0  0  0  0  0  0  0  0  0  0  0
   -6.0769    0.6099    4.2523 H   0  0  0  0  0  0  0  0  0  0  0  0
   -4.2776    1.2750    1.0346 H   0  0  0  0  0  0  0  0  0  0  0  0
   -3.2362    2.9859   -0.3761 H   0  0  0  0  0  0  0  0  0  0  0  0
   -3.1195    2.8150   -2.1674 H   0  0  0  0  0  0  0  0  0  0  0  0
   -4.4846    2.0260   -1.2929 H   0  0  0  0  0  0  0  0  0  0  0  0
   -0.6916   -3.8347   -2.3904 H   0  0  0  0  0  0  0  0  0  0  0  0
   -1.7012   -4.7979   -4.4290 H   0  0  0  0  0  0  0  0  0  0  0  0
   -3.3352   -0.9483   -5.4420 H   0  0  0  0  0  0  0  0  0  0  0  0
   -2.3207    0.0191   -3.4138 H   0  0  0  0  0  0  0  0  0  0  0  0
    1.0773   -0.2063    0.4740 H   0  0  0  0  0  0  0  0  0  0  0  0
    1.2980    1.5208   -0.1249 H   0  0  0  0  0  0  0  0  0  0  0  0
    3.0801    3.5193    0.4318 H   0  0  0  0  0  0  0  0  0  0  0  0
    4.1018    4.1533    2.5747 H   0  0  0  0  0  0  0  0  0  0  0  0
    6.4891    2.0003    4.4567 H   0  0  0  0  0  0  0  0  0  0  0  0
    6.9945    3.5591    3.6911 H   0  0  0  0  0  0  0  0  0  0  0  0
    5.4086    3.4334    4.5510 H   0  0  0  0  0  0  0  0  0  0  0  0
    6.7522    0.7617    2.3129 H   0  0  0  0  0  0  0  0  0  0  0  0
    5.7272    0.1296    0.1671 H   0  0  0  0  0  0  0  0  0  0  0  0
    1.9140    0.3564   -3.1678 H   0  0  0  0  0  0  0  0  0  0  0  0
    1.6829   -1.3591   -2.5392 H   0  0  0  0  0  0  0  0  0  0  0  0
   -0.7230   -3.4601    3.0433 H   0  0  0  0  0  0  0  0  0  0  0  0
   -0.2244   -4.6671    1.7998 H   0  0  0  0  0  0  0  0  0  0  0  0
   -1.9776   -4.4345    2.1516 H   0  0  0  0  0  0  0  0  0  0  0  0
   -2.8926   -2.2919    2.9488 H   0  0  0  0  0  0  0  0  0  0  0  0
  1  2  1  0
  2  3  1  0
  3  4  2  0
  4  5  1  0
  5  6  1  0
  6  7  1  0
  5  8  2  0
  8  9  1  0
  9 10  1  0
 10 11  2  0
 11 12  1  0
 12 13  2  0
 13 14  1  0
 13 15  1  0
 15 16  2  0
  9 17  1  0
 17 18  1  0
 18 19  1  0
 19 20  1  0
 20 21  2  0
 20 22  2  0
 20 23  1  0
 23 24  2  0
 24 25  1  0
 25 26  2  0
 26 27  1  0
 26 28  1  0
 28 29  2  0
 19 30  1  0
  8 31  1  0
 31 32  1  0
 32 33  1  0
 31 34  2  0
 34  3  1  0
 16 10  1  0
 30 17  1  0
 29 23  1  0
  1 35  1  0
  1 36  1  0
  1 37  1  0
  4 38  1  0
  7 39  1  0
  7 40  1  0
  7 41  1  0
 11 42  1  0
 12 43  1  0
 15 44  1  0
 16 45  1  0
 18 46  1  0
 18 47  1  0
 24 48  1  0
 25 49  1  0
 27 50  1  0
 27 51  1  0
 27 52  1  0
 28 53  1  0
 29 54  1  0
 30 55  1  0
 30 56  1  0
 33 57  1  0
 33 58  1  0
 33 59  1  0
 34 60  1  0
M  CHG  2   9   1  17  -1
M  END
