
     RDKit          3D

 43 45  0  0  0  0  0  0  0  0999 V2000
    3.4557    0.5971   -4.1143 C   0  0  0  0  0  0  0  0  0  0  0  0
    3.6139    0.1836   -2.7609 O   0  0  0  0  0  0  0  0  0  0  0  0
    2.5857    0.1784   -1.8058 C   0  0  0  0  0  0  0  0  0  0  0  0
    2.8884   -0.2546   -0.5128 C   0  0  0  0  0  0  0  0  0  0  0  0
    1.9011   -0.2809    0.4886 C   0  0  0  0  0  0  0  0  0  0  0  0
    2.1825   -0.7114    1.7960 O   0  0  0  0  0  0  0  0  0  0  0  0
    3.4582   -1.1569    2.2441 C   0  0  0  0  0  0  0  0  0  0  0  0
    0.5955    0.1357    0.1802 C   0  0  0  0  0  0  0  0  0  0  0  0
   -0.6355    0.1073    1.4431 S   0  0  0  0  0  0  0  0  0  0  0  0
   -1.8284   -1.1743    1.3607 C   0  0  0  0  0  0  0  0  0  0  0  0
   -1.6627   -2.3272    2.1375 C   0  0  0  0  0  0  0  0  0  0  0  0
   -2.6070   -3.3567    2.0743 C   0  0  0  0  0  0  0  0  0  0  0  0
   -3.7202   -3.2361    1.2347 C   0  0  0  0  0  0  0  0  0  0  0  0
   -4.9044   -4.5275    1.1553 Cl  0  0  0  0  0  0  0  0  0  0  0  0
   -3.8875   -2.0833    0.4590 C   0  0  0  0  0  0  0  0  0  0  0  0
   -2.9436   -1.0535    0.5217 C   0  0  0  0  0  0  0  0  0  0  0  0
   -1.0737    1.5942    2.3464 C   0  0  0  0  0  0  0  0  0  0  0  0
   -1.9483    2.5179    1.5321 C   0  0  0  0  0  0  0  0  0  0  0  0
   -0.9352    3.4843    1.4024 O   0  0  0  0  0  0  0  0  0  0  0  0
   -0.0567    2.6988    2.1692 C   0  0  0  0  0  0  0  0  0  0  0  0
    0.2740    0.5684   -1.1180 C   0  0  0  0  0  0  0  0  0  0  0  0
   -1.0438    0.9647   -1.3933 O   0  0  0  0  0  0  0  0  0  0  0  0
   -1.5074    1.4243   -2.6582 C   0  0  0  0  0  0  0  0  0  0  0  0
    1.2757    0.5896   -2.1063 C   0  0  0  0  0  0  0  0  0  0  0  0
    3.1367    1.6601   -4.1542 H   0  0  0  0  0  0  0  0  0  0  0  0
    4.4277    0.4983   -4.6394 H   0  0  0  0  0  0  0  0  0  0  0  0
    2.7088   -0.0465   -4.6255 H   0  0  0  0  0  0  0  0  0  0  0  0
    3.9009   -0.5688   -0.2989 H   0  0  0  0  0  0  0  0  0  0  0  0
    4.2064   -0.3436    2.1355 H   0  0  0  0  0  0  0  0  0  0  0  0
    3.7756   -2.0501    1.6657 H   0  0  0  0  0  0  0  0  0  0  0  0
    3.3887   -1.4345    3.3157 H   0  0  0  0  0  0  0  0  0  0  0  0
   -0.8029   -2.4286    2.7879 H   0  0  0  0  0  0  0  0  0  0  0  0
   -2.4726   -4.2462    2.6765 H   0  0  0  0  0  0  0  0  0  0  0  0
   -4.7474   -1.9842   -0.1911 H   0  0  0  0  0  0  0  0  0  0  0  0
   -3.0856   -0.1656   -0.0793 H   0  0  0  0  0  0  0  0  0  0  0  0
   -2.7978    2.9129    2.1302 H   0  0  0  0  0  0  0  0  0  0  0  0
   -2.2624    2.1258    0.5425 H   0  0  0  0  0  0  0  0  0  0  0  0
    0.8519    2.4282    1.5900 H   0  0  0  0  0  0  0  0  0  0  0  0
    0.1796    3.1979    3.1339 H   0  0  0  0  0  0  0  0  0  0  0  0
   -0.9579    2.3422   -2.9557 H   0  0  0  0  0  0  0  0  0  0  0  0
   -1.3756    0.6315   -3.4243 H   0  0  0  0  0  0  0  0  0  0  0  0
   -2.5870    1.6666   -2.5804 H   0  0  0  0  0  0  0  0  0  0  0  0
    1.0367    0.9225   -3.1051 H   0  0  0  0  0  0  0  0  0  0  0  0
  1  2  1  0
  2  3  1  0
  3  4  2  0
  4  5  1  0
  5  6  1  0
  6  7  1  0
  5  8  2  0
  8  9  1  0
  9 10  1  0
 10 11  2  0
 11 12  1  0
 12 13  2  0
 13 14  1  0
 13 15  1  0
 15 16  2  0
  9 17  1  0
 17 18  1  0
 18 19  1  0
 19 20  1  0
  8 21  1  0
 21 22  1  0
 22 23  1  0
 21 24  2  0
 24  3  1  0
 16 10  1  0
 20 17  1  0
  1 25  1  0
  1 26  1  0
  1 27  1  0
  4 28  1  0
  7 29  1  0
  7 30  1  0
  7 31  1  0
 11 32  1  0
 12 33  1  0
 15 34  1  0
 16 35  1  0
 18 36  1  0
 18 37  1  0
 20 38  1  0
 20 39  1  0
 23 40  1  0
 23 41  1  0
 23 42  1  0
 24 43  1  0
M  CHG  2   9   1  17  -1
M  END
