
     RDKit          3D

 45 47  0  0  0  0  0  0  0  0999 V2000
    5.7015   -0.5332    0.2529 C   0  0  0  0  0  0  0  0  0  0  0  0
    4.6231   -1.0055   -0.5480 O   0  0  0  0  0  0  0  0  0  0  0  0
    3.2826   -0.6252   -0.3809 C   0  0  0  0  0  0  0  0  0  0  0  0
    2.8742    0.2788    0.6150 C   0  0  0  0  0  0  0  0  0  0  0  0
    1.5184    0.6310    0.7489 C   0  0  0  0  0  0  0  0  0  0  0  0
    1.0791    1.5310    1.7345 O   0  0  0  0  0  0  0  0  0  0  0  0
    1.9263    2.1721    2.6821 C   0  0  0  0  0  0  0  0  0  0  0  0
    0.5704    0.0690   -0.1222 C   0  0  0  0  0  0  0  0  0  0  0  0
   -1.1259    0.5108    0.0526 S   0  0  0  0  0  0  0  0  0  0  0  0
   -2.0981   -0.7077    0.8569 C   0  0  0  0  0  0  0  0  0  0  0  0
   -2.5128   -1.8569    0.1707 C   0  0  0  0  0  0  0  0  0  0  0  0
   -3.2887   -2.8201    0.8235 C   0  0  0  0  0  0  0  0  0  0  0  0
   -3.6539   -2.6364    2.1607 C   0  0  0  0  0  0  0  0  0  0  0  0
   -3.2456   -1.4876    2.8454 C   0  0  0  0  0  0  0  0  0  0  0  0
   -2.4700   -0.5232    2.1943 C   0  0  0  0  0  0  0  0  0  0  0  0
   -1.8706    1.1960   -1.4227 C   0  0  0  0  0  0  0  0  0  0  0  0
   -1.1902    2.4954   -1.8392 C   0  0  0  0  0  0  0  0  0  0  0  0
   -2.4550    3.2698   -1.5043 C   0  0  0  0  0  0  0  0  0  0  0  0
   -3.1400    1.9751   -1.0966 C   0  0  0  0  0  0  0  0  0  0  0  0
    0.9699   -0.8283   -1.1277 C   0  0  0  0  0  0  0  0  0  0  0  0
   -0.0012   -1.3516   -1.9961 O   0  0  0  0  0  0  0  0  0  0  0  0
    0.2641   -2.2725   -3.0486 C   0  0  0  0  0  0  0  0  0  0  0  0
    2.3292   -1.1710   -1.2438 C   0  0  0  0  0  0  0  0  0  0  0  0
    5.5413   -0.8164    1.3147 H   0  0  0  0  0  0  0  0  0  0  0  0
    6.6452   -0.9974   -0.0997 H   0  0  0  0  0  0  0  0  0  0  0  0
    5.7918    0.5697    0.1601 H   0  0  0  0  0  0  0  0  0  0  0  0
    3.6077    0.7053    1.2826 H   0  0  0  0  0  0  0  0  0  0  0  0
    2.4331    1.4139    3.3157 H   0  0  0  0  0  0  0  0  0  0  0  0
    1.3109    2.8251    3.3341 H   0  0  0  0  0  0  0  0  0  0  0  0
    2.6782    2.7999    2.1589 H   0  0  0  0  0  0  0  0  0  0  0  0
   -2.2473   -2.0036   -0.8672 H   0  0  0  0  0  0  0  0  0  0  0  0
   -3.6091   -3.7070    0.2924 H   0  0  0  0  0  0  0  0  0  0  0  0
   -4.2548   -3.3821    2.6650 H   0  0  0  0  0  0  0  0  0  0  0  0
   -3.5302   -1.3446    3.8798 H   0  0  0  0  0  0  0  0  0  0  0  0
   -2.1571    0.3638    2.7309 H   0  0  0  0  0  0  0  0  0  0  0  0
   -0.3269    2.7934   -1.2037 H   0  0  0  0  0  0  0  0  0  0  0  0
   -0.9657    2.5052   -2.9273 H   0  0  0  0  0  0  0  0  0  0  0  0
   -2.9207    3.7384   -2.3988 H   0  0  0  0  0  0  0  0  0  0  0  0
   -2.3140    3.9645   -0.6475 H   0  0  0  0  0  0  0  0  0  0  0  0
   -3.4288    1.9653   -0.0221 H   0  0  0  0  0  0  0  0  0  0  0  0
   -3.9705    1.7037   -1.7829 H   0  0  0  0  0  0  0  0  0  0  0  0
    0.9618   -1.8205   -3.7847 H   0  0  0  0  0  0  0  0  0  0  0  0
    0.6944   -3.2095   -2.6363 H   0  0  0  0  0  0  0  0  0  0  0  0
   -0.6874   -2.5158   -3.5640 H   0  0  0  0  0  0  0  0  0  0  0  0
    2.6616   -1.8612   -2.0073 H   0  0  0  0  0  0  0  0  0  0  0  0
  1  2  1  0
  2  3  1  0
  3  4  2  0
  4  5  1  0
  5  6  1  0
  6  7  1  0
  5  8  2  0
  8  9  1  0
  9 10  1  0
 10 11  2  0
 11 12  1  0
 12 13  2  0
 13 14  1  0
 14 15  2  0
  9 16  1  0
 16 17  1  0
 17 18  1  0
 18 19  1  0
  8 20  1  0
 20 21  1  0
 21 22  1  0
 20 23  2  0
 23  3  1  0
 15 10  1  0
 19 16  1  0
  1 24  1  0
  1 25  1  0
  1 26  1  0
  4 27  1  0
  7 28  1  0
  7 29  1  0
  7 30  1  0
 11 31  1  0
 12 32  1  0
 13 33  1  0
 14 34  1  0
 15 35  1  0
 17 36  1  0
 17 37  1  0
 18 38  1  0
 18 39  1  0
 19 40  1  0
 19 41  1  0
 22 42  1  0
 22 43  1  0
 22 44  1  0
 23 45  1  0
M  CHG  2   9   1  16  -1
M  END
