
     RDKit          3D

 46 48  0  0  0  0  0  0  0  0999 V2000
    5.4915   -0.2818   -0.6054 C   0  0  0  0  0  0  0  0  0  0  0  0
    4.6419   -0.3594    0.5347 O   0  0  0  0  0  0  0  0  0  0  0  0
    3.2449   -0.2320    0.4954 C   0  0  0  0  0  0  0  0  0  0  0  0
    2.5416   -0.0117   -0.7015 C   0  0  0  0  0  0  0  0  0  0  0  0
    1.1397    0.1103   -0.6960 C   0  0  0  0  0  0  0  0  0  0  0  0
    0.4126    0.3311   -1.8757 O   0  0  0  0  0  0  0  0  0  0  0  0
    0.9869    0.4780   -3.1696 C   0  0  0  0  0  0  0  0  0  0  0  0
    0.4438    0.0105    0.5211 C   0  0  0  0  0  0  0  0  0  0  0  0
   -1.3114    0.1728    0.5611 S   0  0  0  0  0  0  0  0  0  0  0  0
   -2.2476   -1.2239    0.0648 C   0  0  0  0  0  0  0  0  0  0  0  0
   -2.4022   -1.5317   -1.2934 C   0  0  0  0  0  0  0  0  0  0  0  0
   -3.1481   -2.6508   -1.6768 C   0  0  0  0  0  0  0  0  0  0  0  0
   -3.7400   -3.4643   -0.7056 C   0  0  0  0  0  0  0  0  0  0  0  0
   -3.5860   -3.1592    0.6503 C   0  0  0  0  0  0  0  0  0  0  0  0
   -2.8404   -2.0404    1.0358 C   0  0  0  0  0  0  0  0  0  0  0  0
   -2.0756    1.7872    0.4069 C   0  0  0  0  0  0  0  0  0  0  0  0
   -2.2363    2.2452   -1.0381 C   0  0  0  0  0  0  0  0  0  0  0  0
   -1.2601    3.3852   -0.7832 C   0  0  0  0  0  0  0  0  0  0  0  0
   -1.1149    2.9437    0.6666 C   0  0  0  0  0  0  0  0  0  0  0  0
    1.1381   -0.2095    1.7221 C   0  0  0  0  0  0  0  0  0  0  0  0
    0.4073   -0.3025    2.9184 O   0  0  0  0  0  0  0  0  0  0  0  0
    0.9817   -0.5232    4.2022 C   0  0  0  0  0  0  0  0  0  0  0  0
    2.5392   -0.3297    1.6968 C   0  0  0  0  0  0  0  0  0  0  0  0
    6.5442   -0.4165   -0.2827 H   0  0  0  0  0  0  0  0  0  0  0  0
    5.3925    0.7133   -1.0884 H   0  0  0  0  0  0  0  0  0  0  0  0
    5.2357   -1.0855   -1.3278 H   0  0  0  0  0  0  0  0  0  0  0  0
    3.0829    0.0642   -1.6325 H   0  0  0  0  0  0  0  0  0  0  0  0
    0.1760    0.6503   -3.9066 H   0  0  0  0  0  0  0  0  0  0  0  0
    1.5334   -0.4463   -3.4522 H   0  0  0  0  0  0  0  0  0  0  0  0
    1.6728    1.3512   -3.1856 H   0  0  0  0  0  0  0  0  0  0  0  0
   -1.9488   -0.9108   -2.0537 H   0  0  0  0  0  0  0  0  0  0  0  0
   -3.2671   -2.8876   -2.7262 H   0  0  0  0  0  0  0  0  0  0  0  0
   -4.3169   -4.3303   -1.0033 H   0  0  0  0  0  0  0  0  0  0  0  0
   -4.0435   -3.7894    1.4019 H   0  0  0  0  0  0  0  0  0  0  0  0
   -2.7240   -1.8111    2.0877 H   0  0  0  0  0  0  0  0  0  0  0  0
   -3.0185    1.8689    0.9903 H   0  0  0  0  0  0  0  0  0  0  0  0
   -1.8638    1.5272   -1.7971 H   0  0  0  0  0  0  0  0  0  0  0  0
   -3.2643    2.6126   -1.2495 H   0  0  0  0  0  0  0  0  0  0  0  0
   -0.3150    3.2708   -1.3585 H   0  0  0  0  0  0  0  0  0  0  0  0
   -1.7342    4.3862   -0.8816 H   0  0  0  0  0  0  0  0  0  0  0  0
   -1.5378    3.6884    1.3757 H   0  0  0  0  0  0  0  0  0  0  0  0
   -0.0750    2.6431    0.9154 H   0  0  0  0  0  0  0  0  0  0  0  0
    1.6777    0.3038    4.4564 H   0  0  0  0  0  0  0  0  0  0  0  0
    0.1727   -0.5520    4.9605 H   0  0  0  0  0  0  0  0  0  0  0  0
    1.5185   -1.4952    4.2184 H   0  0  0  0  0  0  0  0  0  0  0  0
    3.0957   -0.4993    2.6085 H   0  0  0  0  0  0  0  0  0  0  0  0
  1  2  1  0
  2  3  1  0
  3  4  2  0
  4  5  1  0
  5  6  1  0
  6  7  1  0
  5  8  2  0
  8  9  1  0
  9 10  1  0
 10 11  2  0
 11 12  1  0
 12 13  2  0
 13 14  1  0
 14 15  2  0
  9 16  1  0
 16 17  1  0
 17 18  1  0
 18 19  1  0
  8 20  1  0
 20 21  1  0
 21 22  1  0
 20 23  2  0
 23  3  1  0
 15 10  1  0
 19 16  1  0
  1 24  1  0
  1 25  1  0
  1 26  1  0
  4 27  1  0
  7 28  1  0
  7 29  1  0
  7 30  1  0
 11 31  1  0
 12 32  1  0
 13 33  1  0
 14 34  1  0
 15 35  1  0
 16 36  1  0
 17 37  1  0
 17 38  1  0
 18 39  1  0
 18 40  1  0
 19 41  1  0
 19 42  1  0
 22 43  1  0
 22 44  1  0
 22 45  1  0
 23 46  1  0
M  CHG  1   9   1
M  END
