
     RDKit          3D

 10 10  0  0  0  0  0  0  0  0999 V2000
   -0.0081   -1.2663   -0.6470 C   0  0  0  0  0  2  0  0  0  0  0  0
    1.0467   -0.2590   -0.2276 C   0  0  0  0  0  0  0  0  0  0  0  0
    0.0047    0.7242    0.3695 C   0  0  0  0  0  0  0  0  0  0  0  0
   -1.0505   -0.3256   -0.0707 C   0  0  0  0  0  0  0  0  0  0  0  0
    1.6368    0.0847   -1.0883 H   0  0  0  0  0  0  0  0  0  0  0  0
    1.7771   -0.7073    0.4600 H   0  0  0  0  0  0  0  0  0  0  0  0
    0.0798    0.8932    1.4462 H   0  0  0  0  0  0  0  0  0  0  0  0
   -0.0631    1.6957   -0.1254 H   0  0  0  0  0  0  0  0  0  0  0  0
   -1.7827   -0.0242   -0.8325 H   0  0  0  0  0  0  0  0  0  0  0  0
   -1.6408   -0.8155    0.7159 H   0  0  0  0  0  0  0  0  0  0  0  0
  2  1  1  0
  3  2  1  0
  4  3  1  0
  4  1  1  0
  5  2  1  0
  6  2  1  0
  7  3  1  0
  8  3  1  0
  9  4  1  0
 10  4  1  0
M  RAD  1   1   3
M  END
