
     RDKit          3D

  8  8  0  0  0  0  0  0  0  0999 V2000
    0.0081    0.0607    1.1156 C   0  0  0  0  0  2  0  0  0  0  0  0
   -0.9883    0.0207    0.0030 C   0  0  0  0  0  0  0  0  0  0  0  0
   -0.0078   -0.0600   -1.0647 O   0  0  0  0  0  0  0  0  0  0  0  0
    0.9882   -0.0215   -0.0090 C   0  0  0  0  0  0  0  0  0  0  0  0
   -1.6158    0.9228   -0.0500 H   0  0  0  0  0  0  0  0  0  0  0  0
   -1.6555   -0.8527    0.0472 H   0  0  0  0  0  0  0  0  0  0  0  0
    1.6532    0.8528   -0.0697 H   0  0  0  0  0  0  0  0  0  0  0  0
    1.6179   -0.9228    0.0276 H   0  0  0  0  0  0  0  0  0  0  0  0
  2  1  1  0
  3  2  1  0
  4  3  1  0
  4  1  1  0
  5  2  1  0
  6  2  1  0
  7  4  1  0
  8  4  1  0
M  RAD  1   1   3
M  END
