
     RDKit          3D

 25 26  0  0  0  0  0  0  0  0999 V2000
    3.4840    1.0111    1.5712 C   0  0  0  0  0  0  0  0  0  0  0  0
    2.2689    0.3603    0.9583 C   0  0  0  0  0  0  0  0  0  0  0  0
    2.0800    0.3595   -0.4300 C   0  0  0  0  0  0  0  0  0  0  0  0
    0.9815   -0.2692   -1.0086 C   0  0  0  0  0  0  0  0  0  0  0  0
    0.0459   -0.8998   -0.1859 C   0  0  0  0  0  0  0  0  0  0  0  0
   -1.4042   -1.6791   -0.9169 S   0  0  0  0  0  0  0  0  0  0  0  0
   -1.9351   -2.6261    0.0596 O   0  0  0  0  0  0  0  0  0  0  0  0
   -1.0575   -2.0554   -2.2835 O   0  0  0  0  0  0  0  0  0  0  0  0
   -2.5782   -0.4763   -1.0637 N   0  0  0  0  0  0  0  0  0  0  0  0
   -3.1376    0.3240    0.0557 C   0  0  0  0  0  0  0  0  0  0  0  0
   -3.2457    1.5556   -0.8061 C   0  0  0  0  0  2  0  0  0  0  0  0
   -2.4304    0.7946   -1.8187 C   0  0  0  0  0  0  0  0  0  0  0  0
    0.2136   -0.9198    1.1985 C   0  0  0  0  0  0  0  0  0  0  0  0
    1.3219   -0.2900    1.7585 C   0  0  0  0  0  0  0  0  0  0  0  0
    3.2957    1.3165    2.6027 H   0  0  0  0  0  0  0  0  0  0  0  0
    3.7942    1.8918    1.0040 H   0  0  0  0  0  0  0  0  0  0  0  0
    4.3300    0.3150    1.5833 H   0  0  0  0  0  0  0  0  0  0  0  0
    2.8090    0.8475   -1.0691 H   0  0  0  0  0  0  0  0  0  0  0  0
    0.8635   -0.2994   -2.0852 H   0  0  0  0  0  0  0  0  0  0  0  0
   -4.0507   -0.0634    0.5164 H   0  0  0  0  0  0  0  0  0  0  0  0
   -2.4189    0.5526    0.8626 H   0  0  0  0  0  0  0  0  0  0  0  0
   -1.4141    1.2277   -1.7991 H   0  0  0  0  0  0  0  0  0  0  0  0
   -2.7727    0.7842   -2.8574 H   0  0  0  0  0  0  0  0  0  0  0  0
   -0.5002   -1.4482    1.8189 H   0  0  0  0  0  0  0  0  0  0  0  0
    1.4570   -0.3138    2.8349 H   0  0  0  0  0  0  0  0  0  0  0  0
  2  1  1  0
  3  2  1  0
  4  3  1  0
  5  4  1  0
  6  5  1  0
  7  6  1  0
  8  6  1  0
  9  6  1  0
 10  9  1  0
 11 10  1  0
 12 11  1  0
 12  9  1  0
 13  5  1  0
 14 13  1  0
 14  2  1  0
 15  1  1  0
 16  1  1  0
 17  1  1  0
 18  3  1  0
 19  4  1  0
 20 10  1  0
 21 10  1  0
 22 12  1  0
 23 12  1  0
 24 13  1  0
 25 14  1  0
M  CHG  8   2  -1   3   1   4  -1   5   1   6   2   7  -1   8  -1  13   1
M  CHG  1  14  -1
M  RAD  1  11   3
M  END
