
     RDKit          3D

 61 64  0  0  0  0  0  0  0  0999 V2000
   -6.2736    2.9604   -0.9292 C   0  0  0  0  0  0  0  0  0  0  0  0
   -5.3650    2.8493    0.1738 O   0  0  0  0  0  0  0  0  0  0  0  0
   -4.3723    1.9474    0.1419 C   0  0  0  0  0  0  0  0  0  0  0  0
   -3.5517    1.9301    1.2779 C   0  0  0  0  0  0  0  0  0  0  0  0
   -2.4888    1.0442    1.3421 C   0  0  0  0  0  0  0  0  0  0  0  0
   -1.6518    0.9448    2.3934 O   0  0  0  0  0  0  0  0  0  0  0  0
   -1.8129    1.8331    3.5108 C   0  0  0  0  0  0  0  0  0  0  0  0
   -2.2328    0.1583    0.2585 C   0  0  0  0  0  0  0  0  0  0  0  0
   -0.7661   -0.8273    0.4249 S   0  0  0  0  0  0  0  0  0  0  0  0
   -1.2052   -2.5399    0.7777 C   0  0  0  0  0  0  0  0  0  0  0  0
   -2.0838   -3.2885   -0.0092 C   0  0  0  0  0  0  0  0  0  0  0  0
   -2.3522   -4.6055    0.3417 C   0  0  0  0  0  0  0  0  0  0  0  0
   -1.7430   -5.1594    1.4704 C   0  0  0  0  0  0  0  0  0  0  0  0
   -2.0865   -6.8107    1.9011 Cl  0  0  0  0  0  0  0  0  0  0  0  0
   -0.8700   -4.4110    2.2576 C   0  0  0  0  0  0  0  0  0  0  0  0
   -0.6016   -3.0899    1.9107 C   0  0  0  0  0  0  0  0  0  0  0  0
    0.0397   -0.9109   -1.2380 C   0  0  0  0  0  0  0  0  0  0  0  0
    1.5561   -1.1856   -1.1028 C   0  0  0  0  0  0  0  0  0  0  0  0
    1.7962    0.2753   -1.2739 N   0  0  0  0  0  0  0  0  0  0  0  0
    3.0551    0.8223   -2.3151 S   0  0  0  0  0  6  0  0  0  0  0  0
    3.3602   -0.2352   -3.2815 O   0  0  0  0  0  0  0  0  0  0  0  0
    2.5802    2.1304   -2.7590 O   0  0  0  0  0  0  0  0  0  0  0  0
    4.4440    0.9978   -1.2080 C   0  0  0  0  0  0  0  0  0  0  0  0
    4.4660    2.0575   -0.2999 C   0  0  0  0  0  0  0  0  0  0  0  0
    5.5595    2.1928    0.5453 C   0  0  0  0  0  0  0  0  0  0  0  0
    6.6358    1.2935    0.4928 C   0  0  0  0  0  0  0  0  0  0  0  0
    7.8332    1.4769    1.3901 C   0  0  0  0  0  0  0  0  0  0  0  0
    6.5856    0.2460   -0.4341 C   0  0  0  0  0  0  0  0  0  0  0  0
    5.4977    0.0904   -1.2899 C   0  0  0  0  0  0  0  0  0  0  0  0
    0.4051    0.4912   -1.7719 C   0  0  0  0  0  0  0  0  0  0  0  0
   -3.0868    0.1716   -0.8644 C   0  0  0  0  0  0  0  0  0  0  0  0
   -2.8058   -0.7123   -1.8539 O   0  0  0  0  0  0  0  0  0  0  0  0
   -3.5842   -0.6934   -3.0632 C   0  0  0  0  0  0  0  0  0  0  0  0
   -4.1500    1.0694   -0.9286 C   0  0  0  0  0  0  0  0  0  0  0  0
   -6.9662    3.7519   -0.6534 H   0  0  0  0  0  0  0  0  0  0  0  0
   -6.8251    2.0275   -1.0763 H   0  0  0  0  0  0  0  0  0  0  0  0
   -5.7445    3.2404   -1.8443 H   0  0  0  0  0  0  0  0  0  0  0  0
   -3.7767    2.6153    2.0815 H   0  0  0  0  0  0  0  0  0  0  0  0
   -2.7826    1.6797    3.9907 H   0  0  0  0  0  0  0  0  0  0  0  0
   -1.0155    1.5720    4.2026 H   0  0  0  0  0  0  0  0  0  0  0  0
   -1.7041    2.8741    3.1970 H   0  0  0  0  0  0  0  0  0  0  0  0
   -2.5594   -2.8515   -0.8765 H   0  0  0  0  0  0  0  0  0  0  0  0
   -3.0303   -5.2034   -0.2540 H   0  0  0  0  0  0  0  0  0  0  0  0
   -0.4095   -4.8531    3.1317 H   0  0  0  0  0  0  0  0  0  0  0  0
    0.0680   -2.4975    2.5230 H   0  0  0  0  0  0  0  0  0  0  0  0
   -0.5472   -1.5623   -1.8732 H   0  0  0  0  0  0  0  0  0  0  0  0
    1.9213   -1.7824   -1.9444 H   0  0  0  0  0  0  0  0  0  0  0  0
    1.9320   -1.5940   -0.1630 H   0  0  0  0  0  0  0  0  0  0  0  0
    3.6491    2.7679   -0.2670 H   0  0  0  0  0  0  0  0  0  0  0  0
    5.5854    3.0157    1.2518 H   0  0  0  0  0  0  0  0  0  0  0  0
    8.5381    2.1886    0.9468 H   0  0  0  0  0  0  0  0  0  0  0  0
    7.5441    1.8713    2.3670 H   0  0  0  0  0  0  0  0  0  0  0  0
    8.3677    0.5374    1.5427 H   0  0  0  0  0  0  0  0  0  0  0  0
    7.4111   -0.4549   -0.4950 H   0  0  0  0  0  0  0  0  0  0  0  0
    5.4699   -0.7096   -2.0192 H   0  0  0  0  0  0  0  0  0  0  0  0
    0.3187    0.5299   -2.8616 H   0  0  0  0  0  0  0  0  0  0  0  0
   -0.0907    1.3600   -1.3387 H   0  0  0  0  0  0  0  0  0  0  0  0
   -4.6277   -0.9437   -2.8575 H   0  0  0  0  0  0  0  0  0  0  0  0
   -3.5149    0.2801   -3.5543 H   0  0  0  0  0  0  0  0  0  0  0  0
   -3.1456   -1.4564   -3.7030 H   0  0  0  0  0  0  0  0  0  0  0  0
   -4.7958    1.0842   -1.7914 H   0  0  0  0  0  0  0  0  0  0  0  0
  2  1  1  0
  3  2  1  0
  4  3  2  0
  5  4  1  0
  6  5  1  0
  7  6  1  0
  8  5  2  0
  9  8  1  0
 10  9  1  0
 11 10  2  0
 12 11  1  0
 13 12  2  0
 14 13  1  0
 15 13  1  0
 16 15  2  0
 16 10  1  0
  9 17  1  6
 18 17  1  0
 19 18  1  0
 20 19  1  0
 21 20  2  0
 22 20  2  0
 23 20  1  0
 24 23  2  0
 25 24  1  0
 26 25  2  0
 27 26  1  0
 28 26  1  0
 29 23  1  0
 29 28  2  0
 30 19  1  0
 30 17  1  0
 31  8  1  0
 32 31  1  0
 33 32  1  0
 34 31  2  0
 34  3  1  0
 35  1  1  0
 36  1  1  0
 37  1  1  0
 38  4  1  0
 39  7  1  0
 40  7  1  0
 41  7  1  0
 42 11  1  0
 43 12  1  0
 44 15  1  0
 45 16  1  0
 46 17  1  0
 47 18  1  0
 48 18  1  0
 49 24  1  0
 50 25  1  0
 51 27  1  0
 52 27  1  0
 53 27  1  0
 54 28  1  0
 55 29  1  0
 56 30  1  0
 57 30  1  0
 58 33  1  0
 59 33  1  0
 60 33  1  0
 61 34  1  0
M  CHG  1   9   1
M  END
