
     RDKit          3D

 43 45  0  0  0  0  0  0  0  0999 V2000
    3.1820    0.0988   -4.0261 C   0  0  0  0  0  0  0  0  0  0  0  0
    3.5226   -0.0975   -2.6583 O   0  0  0  0  0  0  0  0  0  0  0  0
    2.5404   -0.0447   -1.7172 C   0  0  0  0  0  0  0  0  0  0  0  0
    2.9689   -0.2464   -0.4017 C   0  0  0  0  0  0  0  0  0  0  0  0
    2.0354   -0.2139    0.6317 C   0  0  0  0  0  0  0  0  0  0  0  0
    2.3651   -0.4041    1.9372 O   0  0  0  0  0  0  0  0  0  0  0  0
    3.7336   -0.5905    2.2856 C   0  0  0  0  0  0  0  0  0  0  0  0
    0.6702    0.0067    0.3636 C   0  0  0  0  0  0  0  0  0  0  0  0
   -0.4825    0.1882    1.8120 S   0  0  0  0  0  0  0  0  0  0  0  0
   -1.7739   -0.9935    1.2804 C   0  0  0  0  0  0  0  0  0  0  0  0
   -1.4118   -2.2563    0.8174 C   0  0  0  0  0  0  0  0  0  0  0  0
   -2.3991   -3.1867    0.5026 C   0  0  0  0  0  0  0  0  0  0  0  0
   -3.7380   -2.8359    0.6579 C   0  0  0  0  0  0  0  0  0  0  0  0
   -4.9886   -4.0038    0.2424 Cl  0  0  0  0  0  0  0  0  0  0  0  0
   -4.1037   -1.5823    1.1376 C   0  0  0  0  0  0  0  0  0  0  0  0
   -3.1098   -0.6588    1.4581 C   0  0  0  0  0  0  0  0  0  0  0  0
   -1.2110    1.6790    2.0456 C   0  0  0  0  0  0  0  0  0  0  0  0
   -1.4760    2.7974    1.0474 C   0  0  0  0  0  0  0  0  0  0  0  0
   -0.9770    3.7767    1.9972 O   0  0  0  0  0  0  0  0  0  0  0  0
   -0.5942    2.7470    2.9505 C   0  0  0  0  0  0  0  0  0  0  0  0
    0.2704    0.2273   -0.9613 C   0  0  0  0  0  0  0  0  0  0  0  0
   -1.0537    0.4619   -1.1566 O   0  0  0  0  0  0  0  0  0  0  0  0
   -1.5491    0.6495   -2.4779 C   0  0  0  0  0  0  0  0  0  0  0  0
    1.1968    0.1922   -2.0127 C   0  0  0  0  0  0  0  0  0  0  0  0
    2.7572    1.0944   -4.1927 H   0  0  0  0  0  0  0  0  0  0  0  0
    4.1161    0.0092   -4.5783 H   0  0  0  0  0  0  0  0  0  0  0  0
    2.4799   -0.6656   -4.3761 H   0  0  0  0  0  0  0  0  0  0  0  0
    4.0201   -0.4244   -0.2281 H   0  0  0  0  0  0  0  0  0  0  0  0
    4.3385    0.2746    1.9953 H   0  0  0  0  0  0  0  0  0  0  0  0
    4.1419   -1.4968    1.8265 H   0  0  0  0  0  0  0  0  0  0  0  0
    3.7472   -0.6957    3.3691 H   0  0  0  0  0  0  0  0  0  0  0  0
   -0.3677   -2.5178    0.6886 H   0  0  0  0  0  0  0  0  0  0  0  0
   -2.1327   -4.1720    0.1408 H   0  0  0  0  0  0  0  0  0  0  0  0
   -5.1499   -1.3299    1.2593 H   0  0  0  0  0  0  0  0  0  0  0  0
   -3.3527    0.3232    1.8496 H   0  0  0  0  0  0  0  0  0  0  0  0
   -2.5228    3.0032    0.7857 H   0  0  0  0  0  0  0  0  0  0  0  0
   -0.8755    2.7918    0.1269 H   0  0  0  0  0  0  0  0  0  0  0  0
    0.4936    2.7311    3.1069 H   0  0  0  0  0  0  0  0  0  0  0  0
   -1.0898    2.9101    3.9162 H   0  0  0  0  0  0  0  0  0  0  0  0
   -1.1135    1.5395   -2.9443 H   0  0  0  0  0  0  0  0  0  0  0  0
   -1.3579   -0.2294   -3.1021 H   0  0  0  0  0  0  0  0  0  0  0  0
   -2.6234    0.7884   -2.3704 H   0  0  0  0  0  0  0  0  0  0  0  0
    0.8746    0.3555   -3.0286 H   0  0  0  0  0  0  0  0  0  0  0  0
  2  1  1  0
  3  2  1  0
  4  3  2  0
  5  4  1  0
  6  5  1  0
  7  6  1  0
  8  5  2  0
  9  8  1  0
 10  9  1  0
 11 10  2  0
 12 11  1  0
 13 12  2  0
 14 13  1  0
 15 13  1  0
 16 15  2  0
 16 10  1  0
  9 17  1  6
 18 17  1  0
 19 18  1  0
 20 19  1  0
 20 17  1  0
 21  8  1  0
 22 21  1  0
 23 22  1  0
 24 21  2  0
 24  3  1  0
 25  1  1  0
 26  1  1  0
 27  1  1  0
 28  4  1  0
 29  7  1  0
 30  7  1  0
 31  7  1  0
 32 11  1  0
 33 12  1  0
 34 15  1  0
 35 16  1  0
 36 18  1  0
 37 18  1  0
 38 20  1  0
 39 20  1  0
 40 23  1  0
 41 23  1  0
 42 23  1  0
 43 24  1  0
M  CHG  2   9   1  17  -1
M  END
