
     RDKit          3D

 60 63  0  0  0  0  0  0  0  0999 V2000
   -4.2986   -0.3845    3.8647 C   0  0  0  0  0  0  0  0  0  0  0  0
   -3.6505   -1.5807    3.4462 O   0  0  0  0  0  0  0  0  0  0  0  0
   -2.9559   -1.5821    2.2754 C   0  0  0  0  0  0  0  0  0  0  0  0
   -2.8276   -0.4641    1.4484 C   0  0  0  0  0  0  0  0  0  0  0  0
   -2.0818   -0.5801    0.2668 C   0  0  0  0  0  0  0  0  0  0  0  0
   -1.9041    0.4571   -0.5941 O   0  0  0  0  0  0  0  0  0  0  0  0
   -2.5386    1.7049   -0.3343 C   0  0  0  0  0  0  0  0  0  0  0  0
   -1.4841   -1.7938   -0.0964 C   0  0  0  0  0  0  0  0  0  0  0  0
   -0.3842   -1.9803   -1.5880 S   0  0  0  0  0  0  0  0  0  0  0  0
   -1.5845   -1.4567   -2.8704 C   0  0  0  0  0  0  0  0  0  0  0  0
   -2.8853   -1.9552   -2.8555 C   0  0  0  0  0  0  0  0  0  0  0  0
   -3.7546   -1.6519   -3.9005 C   0  0  0  0  0  0  0  0  0  0  0  0
   -3.3065   -0.8498   -4.9473 C   0  0  0  0  0  0  0  0  0  0  0  0
   -4.4059   -0.4590   -6.2653 Cl  0  0  0  0  0  0  0  0  0  0  0  0
   -2.0056   -0.3576   -4.9716 C   0  0  0  0  0  0  0  0  0  0  0  0
   -1.1376   -0.6739   -3.9274 C   0  0  0  0  0  0  0  0  0  0  0  0
    0.9655   -1.0124   -1.7129 C   0  0  0  0  0  0  0  0  0  0  0  0
    1.2587    0.3831   -1.1770 C   0  0  0  0  0  0  0  0  0  0  0  0
    2.5962   -0.1295   -0.7172 N   0  0  0  0  0  0  0  0  0  0  0  0
    4.0090    0.6907   -1.1347 S   0  0  0  0  0  6  0  0  0  0  0  0
    5.0948   -0.2759   -0.9549 O   0  0  0  0  0  0  0  0  0  0  0  0
    3.8785    1.4108   -2.4084 O   0  0  0  0  0  0  0  0  0  0  0  0
    4.1057    1.9411    0.1556 C   0  0  0  0  0  0  0  0  0  0  0  0
    3.9242    3.2791   -0.1763 C   0  0  0  0  0  0  0  0  0  0  0  0
    4.0307    4.2470    0.8222 C   0  0  0  0  0  0  0  0  0  0  0  0
    4.3196    3.8942    2.1433 C   0  0  0  0  0  0  0  0  0  0  0  0
    4.4683    4.9460    3.2154 C   0  0  0  0  0  0  0  0  0  0  0  0
    4.4978    2.5361    2.4479 C   0  0  0  0  0  0  0  0  0  0  0  0
    4.3950    1.5592    1.4655 C   0  0  0  0  0  0  0  0  0  0  0  0
    2.3644   -1.4945   -1.3208 C   0  0  0  0  0  0  0  0  0  0  0  0
   -1.6302   -2.9036    0.7595 C   0  0  0  0  0  0  0  0  0  0  0  0
   -1.0354   -4.0564    0.3528 O   0  0  0  0  0  0  0  0  0  0  0  0
   -1.1256   -5.2130    1.1797 C   0  0  0  0  0  0  0  0  0  0  0  0
   -2.3637   -2.8027    1.9397 C   0  0  0  0  0  0  0  0  0  0  0  0
   -5.0559   -0.0673    3.1398 H   0  0  0  0  0  0  0  0  0  0  0  0
   -3.5783    0.4249    4.0242 H   0  0  0  0  0  0  0  0  0  0  0  0
   -4.7832   -0.6265    4.8091 H   0  0  0  0  0  0  0  0  0  0  0  0
   -3.2869    0.4749    1.7128 H   0  0  0  0  0  0  0  0  0  0  0  0
   -2.1740    2.1515    0.5968 H   0  0  0  0  0  0  0  0  0  0  0  0
   -2.2723    2.3483   -1.1711 H   0  0  0  0  0  0  0  0  0  0  0  0
   -3.6271    1.5956   -0.2935 H   0  0  0  0  0  0  0  0  0  0  0  0
   -3.2302   -2.5722   -2.0339 H   0  0  0  0  0  0  0  0  0  0  0  0
   -4.7676   -2.0347   -3.9031 H   0  0  0  0  0  0  0  0  0  0  0  0
   -1.6720    0.2606   -5.7958 H   0  0  0  0  0  0  0  0  0  0  0  0
   -0.1103   -0.3263   -3.9253 H   0  0  0  0  0  0  0  0  0  0  0  0
    0.6575    0.7425   -0.3369 H   0  0  0  0  0  0  0  0  0  0  0  0
    1.3403    1.1740   -1.9322 H   0  0  0  0  0  0  0  0  0  0  0  0
    3.7153    3.5513   -1.2034 H   0  0  0  0  0  0  0  0  0  0  0  0
    3.8920    5.2922    0.5649 H   0  0  0  0  0  0  0  0  0  0  0  0
    3.9616    4.6493    4.1379 H   0  0  0  0  0  0  0  0  0  0  0  0
    5.5241    5.1038    3.4612 H   0  0  0  0  0  0  0  0  0  0  0  0
    4.0567    5.9050    2.8940 H   0  0  0  0  0  0  0  0  0  0  0  0
    4.7250    2.2421    3.4679 H   0  0  0  0  0  0  0  0  0  0  0  0
    4.5421    0.5129    1.7044 H   0  0  0  0  0  0  0  0  0  0  0  0
    3.0336   -1.7143   -2.1594 H   0  0  0  0  0  0  0  0  0  0  0  0
    2.4667   -2.2844   -0.5707 H   0  0  0  0  0  0  0  0  0  0  0  0
   -0.6715   -5.0362    2.1598 H   0  0  0  0  0  0  0  0  0  0  0  0
   -0.5701   -5.9894    0.6566 H   0  0  0  0  0  0  0  0  0  0  0  0
   -2.1656   -5.5310    1.3067 H   0  0  0  0  0  0  0  0  0  0  0  0
   -2.4981   -3.6383    2.6108 H   0  0  0  0  0  0  0  0  0  0  0  0
  2  1  1  0
  3  2  1  0
  4  3  2  0
  5  4  1  0
  6  5  1  0
  7  6  1  0
  8  5  2  0
  9  8  1  0
 10  9  1  0
 11 10  2  0
 12 11  1  0
 13 12  2  0
 14 13  1  0
 15 13  1  0
 16 15  2  0
 16 10  1  0
  9 17  1  1
 18 17  1  0
 19 18  1  0
 20 19  1  0
 21 20  2  0
 22 20  2  0
 23 20  1  0
 24 23  2  0
 25 24  1  0
 26 25  2  0
 27 26  1  0
 28 26  1  0
 29 28  2  0
 29 23  1  0
 30 19  1  0
 30 17  1  0
 31  8  1  0
 32 31  1  0
 33 32  1  0
 34 31  2  0
 34  3  1  0
 35  1  1  0
 36  1  1  0
 37  1  1  0
 38  4  1  0
 39  7  1  0
 40  7  1  0
 41  7  1  0
 42 11  1  0
 43 12  1  0
 44 15  1  0
 45 16  1  0
 46 18  1  0
 47 18  1  0
 48 24  1  0
 49 25  1  0
 50 27  1  0
 51 27  1  0
 52 27  1  0
 53 28  1  0
 54 29  1  0
 55 30  1  0
 56 30  1  0
 57 33  1  0
 58 33  1  0
 59 33  1  0
 60 34  1  0
M  CHG  2   9   1  17  -1
M  END
