
     RDKit          3D

 46 48  0  0  0  0  0  0  0  0999 V2000
    5.3558   -0.2310   -0.7164 C   0  0  0  0  0  0  0  0  0  0  0  0
    4.6137   -0.4396    0.4912 O   0  0  0  0  0  0  0  0  0  0  0  0
    3.2806   -0.2836    0.5004 C   0  0  0  0  0  0  0  0  0  0  0  0
    2.5299    0.0792   -0.6262 C   0  0  0  0  0  0  0  0  0  0  0  0
    1.1468    0.2091   -0.5107 C   0  0  0  0  0  0  0  0  0  0  0  0
    0.3515    0.5473   -1.5531 O   0  0  0  0  0  0  0  0  0  0  0  0
    0.9390    0.7935   -2.8401 C   0  0  0  0  0  0  0  0  0  0  0  0
    0.5057   -0.0084    0.7278 C   0  0  0  0  0  0  0  0  0  0  0  0
   -1.2247    0.1661    1.0625 S   0  0  0  0  0  0  0  0  0  0  0  0
   -2.1571   -1.1602    0.2598 C   0  0  0  0  0  0  0  0  0  0  0  0
   -1.6797   -1.8900   -0.8261 C   0  0  0  0  0  0  0  0  0  0  0  0
   -2.4712   -2.9146   -1.3423 C   0  0  0  0  0  0  0  0  0  0  0  0
   -3.7187   -3.1936   -0.7853 C   0  0  0  0  0  0  0  0  0  0  0  0
   -4.1799   -2.4580    0.3054 C   0  0  0  0  0  0  0  0  0  0  0  0
   -3.3943   -1.4417    0.8442 C   0  0  0  0  0  0  0  0  0  0  0  0
   -1.9364    1.7479    0.3335 C   0  0  0  0  0  0  0  0  0  0  0  0
   -2.4280    1.8841   -1.1206 C   0  0  0  0  0  0  0  0  0  0  0  0
   -1.8893    3.3479   -1.0729 C   0  0  0  0  0  0  0  0  0  0  0  0
   -1.0339    2.9903    0.1804 C   0  0  0  0  0  0  0  0  0  0  0  0
    1.2914   -0.3823    1.8582 C   0  0  0  0  0  0  0  0  0  0  0  0
    0.6177   -0.5990    3.0031 O   0  0  0  0  0  0  0  0  0  0  0  0
    1.3390   -0.9573    4.1920 C   0  0  0  0  0  0  0  0  0  0  0  0
    2.6652   -0.5161    1.7369 C   0  0  0  0  0  0  0  0  0  0  0  0
    6.3941   -0.4172   -0.4525 H   0  0  0  0  0  0  0  0  0  0  0  0
    5.2480    0.7987   -1.0687 H   0  0  0  0  0  0  0  0  0  0  0  0
    5.0446   -0.9352   -1.4930 H   0  0  0  0  0  0  0  0  0  0  0  0
    3.0133    0.2538   -1.5734 H   0  0  0  0  0  0  0  0  0  0  0  0
    0.1084    1.0424   -3.4972 H   0  0  0  0  0  0  0  0  0  0  0  0
    1.4454   -0.0993   -3.2156 H   0  0  0  0  0  0  0  0  0  0  0  0
    1.6368    1.6335   -2.7963 H   0  0  0  0  0  0  0  0  0  0  0  0
   -0.7133   -1.6742   -1.2579 H   0  0  0  0  0  0  0  0  0  0  0  0
   -2.1087   -3.4950   -2.1826 H   0  0  0  0  0  0  0  0  0  0  0  0
   -4.3264   -3.9924   -1.1939 H   0  0  0  0  0  0  0  0  0  0  0  0
   -5.1413   -2.6840    0.7510 H   0  0  0  0  0  0  0  0  0  0  0  0
   -3.7361   -0.8922    1.7143 H   0  0  0  0  0  0  0  0  0  0  0  0
   -2.7429    1.9261    1.0479 H   0  0  0  0  0  0  0  0  0  0  0  0
   -1.8745    1.2596   -1.8160 H   0  0  0  0  0  0  0  0  0  0  0  0
   -3.4975    1.7413   -1.2720 H   0  0  0  0  0  0  0  0  0  0  0  0
   -1.3406    3.6922   -1.9491 H   0  0  0  0  0  0  0  0  0  0  0  0
   -2.6741    4.0689   -0.8421 H   0  0  0  0  0  0  0  0  0  0  0  0
   -1.0269    3.6887    1.0168 H   0  0  0  0  0  0  0  0  0  0  0  0
   -0.0086    2.7350   -0.0847 H   0  0  0  0  0  0  0  0  0  0  0  0
    2.0488   -0.1730    4.4666 H   0  0  0  0  0  0  0  0  0  0  0  0
    0.5826   -1.0566    4.9669 H   0  0  0  0  0  0  0  0  0  0  0  0
    1.8579   -1.9096    4.0583 H   0  0  0  0  0  0  0  0  0  0  0  0
    3.2880   -0.8018    2.5715 H   0  0  0  0  0  0  0  0  0  0  0  0
  2  1  1  0
  3  2  1  0
  4  3  2  0
  5  4  1  0
  6  5  1  0
  7  6  1  0
  8  5  2  0
  9  8  1  0
 10  9  1  0
 11 10  2  0
 12 11  1  0
 13 12  2  0
 14 13  1  0
 15 14  2  0
 15 10  1  0
  9 16  1  6
 17 16  1  0
 18 17  1  0
 19 18  1  0
 19 16  1  0
 20  8  1  0
 21 20  1  0
 22 21  1  0
 23 20  2  0
 23  3  1  0
 24  1  1  0
 25  1  1  0
 26  1  1  0
 27  4  1  0
 28  7  1  0
 29  7  1  0
 30  7  1  0
 31 11  1  0
 32 12  1  0
 33 13  1  0
 34 14  1  0
 35 15  1  0
 36 16  1  0
 37 17  1  0
 38 17  1  0
 39 18  1  0
 40 18  1  0
 41 19  1  0
 42 19  1  0
 43 22  1  0
 44 22  1  0
 45 22  1  0
 46 23  1  0
M  CHG  1   9   1
M  END
