
     RDKit          3D

 45 47  0  0  0  0  0  0  0  0999 V2000
    5.5024   -0.1663    0.4823 C   0  0  0  0  0  0  0  0  0  0  0  0
    4.4503   -0.7675   -0.2612 O   0  0  0  0  0  0  0  0  0  0  0  0
    3.1627   -0.3991   -0.0026 C   0  0  0  0  0  0  0  0  0  0  0  0
    2.8033    0.5244    0.9795 C   0  0  0  0  0  0  0  0  0  0  0  0
    1.4436    0.8243    1.1581 C   0  0  0  0  0  0  0  0  0  0  0  0
    1.0083    1.7078    2.1015 O   0  0  0  0  0  0  0  0  0  0  0  0
    1.9567    2.3941    2.9070 C   0  0  0  0  0  0  0  0  0  0  0  0
    0.4548    0.2093    0.3810 C   0  0  0  0  0  0  0  0  0  0  0  0
   -1.3103    0.8425    0.5351 S   0  0  0  0  0  0  0  0  0  0  0  0
   -2.1425   -0.7619    0.8160 C   0  0  0  0  0  0  0  0  0  0  0  0
   -3.3936   -0.9759    0.2489 C   0  0  0  0  0  0  0  0  0  0  0  0
   -4.0836   -2.1536    0.5370 C   0  0  0  0  0  0  0  0  0  0  0  0
   -3.5328   -3.1003    1.3994 C   0  0  0  0  0  0  0  0  0  0  0  0
   -2.2841   -2.8660    1.9762 C   0  0  0  0  0  0  0  0  0  0  0  0
   -1.5834   -1.6968    1.6857 C   0  0  0  0  0  0  0  0  0  0  0  0
   -2.0186    1.5656   -0.7994 C   0  0  0  0  0  0  0  0  0  0  0  0
   -1.9326    1.2694   -2.2929 C   0  0  0  0  0  0  0  0  0  0  0  0
   -2.3668    2.7489   -2.5187 C   0  0  0  0  0  0  0  0  0  0  0  0
   -2.0064    3.0797   -1.0368 C   0  0  0  0  0  0  0  0  0  0  0  0
    0.8534   -0.7067   -0.6105 C   0  0  0  0  0  0  0  0  0  0  0  0
   -0.1471   -1.2643   -1.3400 O   0  0  0  0  0  0  0  0  0  0  0  0
    0.1754   -2.2009   -2.3609 C   0  0  0  0  0  0  0  0  0  0  0  0
    2.1978   -1.0204   -0.8002 C   0  0  0  0  0  0  0  0  0  0  0  0
    5.4174   -0.3918    1.5511 H   0  0  0  0  0  0  0  0  0  0  0  0
    6.4234   -0.6006    0.0961 H   0  0  0  0  0  0  0  0  0  0  0  0
    5.5249    0.9192    0.3366 H   0  0  0  0  0  0  0  0  0  0  0  0
    3.5529    0.9963    1.5944 H   0  0  0  0  0  0  0  0  0  0  0  0
    2.5405    1.6989    3.5204 H   0  0  0  0  0  0  0  0  0  0  0  0
    1.3728    3.0434    3.5576 H   0  0  0  0  0  0  0  0  0  0  0  0
    2.6324    3.0049    2.2984 H   0  0  0  0  0  0  0  0  0  0  0  0
   -3.8056   -0.2129   -0.4017 H   0  0  0  0  0  0  0  0  0  0  0  0
   -5.0549   -2.3283    0.0865 H   0  0  0  0  0  0  0  0  0  0  0  0
   -4.0735   -4.0129    1.6256 H   0  0  0  0  0  0  0  0  0  0  0  0
   -1.8522   -3.5947    2.6540 H   0  0  0  0  0  0  0  0  0  0  0  0
   -0.6079   -1.5211    2.1243 H   0  0  0  0  0  0  0  0  0  0  0  0
   -0.9135    1.0855   -2.6627 H   0  0  0  0  0  0  0  0  0  0  0  0
   -2.5845    0.4906   -2.7035 H   0  0  0  0  0  0  0  0  0  0  0  0
   -3.4390    2.8371   -2.7046 H   0  0  0  0  0  0  0  0  0  0  0  0
   -1.8244    3.3043   -3.2871 H   0  0  0  0  0  0  0  0  0  0  0  0
   -1.0225    3.5654   -0.9665 H   0  0  0  0  0  0  0  0  0  0  0  0
   -2.7277    3.6848   -0.4777 H   0  0  0  0  0  0  0  0  0  0  0  0
    0.8038   -1.7463   -3.1342 H   0  0  0  0  0  0  0  0  0  0  0  0
    0.6787   -3.0814   -1.9480 H   0  0  0  0  0  0  0  0  0  0  0  0
   -0.7768   -2.4993   -2.7963 H   0  0  0  0  0  0  0  0  0  0  0  0
    2.5289   -1.7275   -1.5471 H   0  0  0  0  0  0  0  0  0  0  0  0
  2  1  1  0
  3  2  1  0
  4  3  2  0
  5  4  1  0
  6  5  1  0
  7  6  1  0
  8  5  2  0
  9  8  1  0
 10  9  1  0
 11 10  2  0
 12 11  1  0
 13 12  2  0
 14 13  1  0
 15 14  2  0
 15 10  1  0
  9 16  1  6
 17 16  1  0
 18 17  1  0
 19 18  1  0
 19 16  1  0
 20  8  1  0
 21 20  1  0
 22 21  1  0
 23 20  2  0
 23  3  1  0
 24  1  1  0
 25  1  1  0
 26  1  1  0
 27  4  1  0
 28  7  1  0
 29  7  1  0
 30  7  1  0
 31 11  1  0
 32 12  1  0
 33 13  1  0
 34 14  1  0
 35 15  1  0
 36 17  1  0
 37 17  1  0
 38 18  1  0
 39 18  1  0
 40 19  1  0
 41 19  1  0
 42 22  1  0
 43 22  1  0
 44 22  1  0
 45 23  1  0
M  CHG  2   9   1  16  -1
M  END
