
     RDKit          3D

 44 46  0  0  0  0  0  0  0  0999 V2000
    5.5284   -0.1311   -0.1137 C   0  0  0  0  0  0  0  0  0  0  0  0
    4.4607   -0.7074    0.6512 O   0  0  0  0  0  0  0  0  0  0  0  0
    3.1861   -0.5021    0.2893 C   0  0  0  0  0  0  0  0  0  0  0  0
    2.7998    0.2559   -0.8215 C   0  0  0  0  0  0  0  0  0  0  0  0
    1.4420    0.4024   -1.1037 C   0  0  0  0  0  0  0  0  0  0  0  0
    0.9702    1.1294   -2.1353 O   0  0  0  0  0  0  0  0  0  0  0  0
    1.8850    1.7509   -3.0513 C   0  0  0  0  0  0  0  0  0  0  0  0
    0.4675   -0.2148   -0.2807 C   0  0  0  0  0  0  0  0  0  0  0  0
   -1.2110    0.0093   -0.8107 S   0  0  0  0  0  0  0  0  0  0  0  0
   -2.0359    1.2084    0.2540 C   0  0  0  0  0  0  0  0  0  0  0  0
   -1.9996    1.1499    1.6492 C   0  0  0  0  0  0  0  0  0  0  0  0
   -2.6711    2.1198    2.3829 C   0  0  0  0  0  0  0  0  0  0  0  0
   -3.3694    3.1318    1.7186 C   0  0  0  0  0  0  0  0  0  0  0  0
   -4.2082    4.3409    2.6477 Cl  0  0  0  0  0  0  0  0  0  0  0  0
   -3.4019    3.1906    0.3266 C   0  0  0  0  0  0  0  0  0  0  0  0
   -2.7255    2.2241   -0.4121 C   0  0  0  0  0  0  0  0  0  0  0  0
   -2.1231   -1.5671   -0.4949 C   0  0  0  0  0  0  0  0  0  0  0  0
   -3.4159   -1.6536   -1.3349 C   0  0  0  0  0  0  0  0  0  0  0  0
   -2.8132   -2.6196   -2.2212 O   0  0  0  0  0  0  0  0  0  0  0  0
   -1.6369   -2.7234   -1.3913 C   0  0  0  0  0  0  0  0  0  0  0  0
    0.8840   -0.9606    0.8514 C   0  0  0  0  0  0  0  0  0  0  0  0
   -0.0954   -1.5035    1.6171 O   0  0  0  0  0  0  0  0  0  0  0  0
    0.2718   -2.3281    2.7387 C   0  0  0  0  0  0  0  0  0  0  0  0
    2.2323   -1.1060    1.1253 C   0  0  0  0  0  0  0  0  0  0  0  0
    5.4652    0.9604   -0.1091 H   0  0  0  0  0  0  0  0  0  0  0  0
    6.4420   -0.4451    0.3852 H   0  0  0  0  0  0  0  0  0  0  0  0
    5.5219   -0.5107   -1.1390 H   0  0  0  0  0  0  0  0  0  0  0  0
    3.5368    0.7305   -1.4489 H   0  0  0  0  0  0  0  0  0  0  0  0
    2.5149    1.0028   -3.5390 H   0  0  0  0  0  0  0  0  0  0  0  0
    1.2593    2.2417   -3.7930 H   0  0  0  0  0  0  0  0  0  0  0  0
    2.4999    2.4952   -2.5392 H   0  0  0  0  0  0  0  0  0  0  0  0
   -1.4550    0.3652    2.1563 H   0  0  0  0  0  0  0  0  0  0  0  0
   -2.6559    2.0954    3.4651 H   0  0  0  0  0  0  0  0  0  0  0  0
   -3.9424    3.9842   -0.1729 H   0  0  0  0  0  0  0  0  0  0  0  0
   -2.7323    2.2711   -1.4948 H   0  0  0  0  0  0  0  0  0  0  0  0
   -2.1831   -1.7303    0.5739 H   0  0  0  0  0  0  0  0  0  0  0  0
   -4.2553   -2.0749   -0.7734 H   0  0  0  0  0  0  0  0  0  0  0  0
   -3.7437   -0.7552   -1.8641 H   0  0  0  0  0  0  0  0  0  0  0  0
   -1.5871   -3.6791   -0.8606 H   0  0  0  0  0  0  0  0  0  0  0  0
   -0.7152   -2.5705   -1.9586 H   0  0  0  0  0  0  0  0  0  0  0  0
   -0.6678   -2.6670    3.1701 H   0  0  0  0  0  0  0  0  0  0  0  0
    0.8588   -3.1884    2.4095 H   0  0  0  0  0  0  0  0  0  0  0  0
    0.8294   -1.7498    3.4788 H   0  0  0  0  0  0  0  0  0  0  0  0
    2.5890   -1.6719    1.9729 H   0  0  0  0  0  0  0  0  0  0  0  0
  2  1  1  0
  3  2  1  0
  4  3  2  0
  5  4  1  0
  6  5  1  0
  7  6  1  0
  8  5  2  0
  9  8  1  0
 10  9  1  0
 11 10  2  0
 12 11  1  0
 13 12  2  0
 14 13  1  0
 15 13  1  0
 16 15  2  0
 16 10  1  0
  9 17  1  1
 18 17  1  0
 19 18  1  0
 20 19  1  0
 20 17  1  0
 21  8  1  0
 22 21  1  0
 23 22  1  0
 24 21  2  0
 24  3  1  0
 25  1  1  0
 26  1  1  0
 27  1  1  0
 28  4  1  0
 29  7  1  0
 30  7  1  0
 31  7  1  0
 32 11  1  0
 33 12  1  0
 34 15  1  0
 35 16  1  0
 36 17  1  0
 37 18  1  0
 38 18  1  0
 39 20  1  0
 40 20  1  0
 41 23  1  0
 42 23  1  0
 43 23  1  0
 44 24  1  0
M  CHG  1   9   1
M  END
