
     RDKit          3D

 10 10  0  0  0  0  0  0  0  0999 V2000
   -0.0084   -1.2628   -0.6464 C   0  0  0  0  0  2  0  0  0  0  0  0
    1.0390   -0.2571   -0.2257 C   0  0  0  0  0  0  0  0  0  0  0  0
    0.0046    0.7211    0.3672 C   0  0  0  0  0  0  0  0  0  0  0  0
   -1.0426   -0.3225   -0.0710 C   0  0  0  0  0  0  0  0  0  0  0  0
    1.6335    0.0844   -1.0920 H   0  0  0  0  0  0  0  0  0  0  0  0
    1.7727   -0.7091    0.4656 H   0  0  0  0  0  0  0  0  0  0  0  0
    0.0802    0.8888    1.4501 H   0  0  0  0  0  0  0  0  0  0  0  0
   -0.0642    1.6975   -0.1312 H   0  0  0  0  0  0  0  0  0  0  0  0
   -1.7809   -0.0215   -0.8357 H   0  0  0  0  0  0  0  0  0  0  0  0
   -1.6340   -0.8190    0.7193 H   0  0  0  0  0  0  0  0  0  0  0  0
  2  1  1  0
  3  2  1  0
  4  3  1  0
  4  1  1  0
  5  2  1  0
  6  2  1  0
  7  3  1  0
  8  3  1  0
  9  4  1  0
 10  4  1  0
M  RAD  1   1   3
M  END
