
     RDKit          3D

 25 26  0  0  0  0  0  0  0  0999 V2000
    3.3937    1.0451    1.5493 C   0  0  0  0  0  0  0  0  0  0  0  0
    2.1980    0.3687    0.9345 C   0  0  0  0  0  0  0  0  0  0  0  0
    2.0192    0.3565   -0.4560 C   0  0  0  0  0  0  0  0  0  0  0  0
    0.9332   -0.2932   -1.0356 C   0  0  0  0  0  0  0  0  0  0  0  0
    0.0040   -0.9269   -0.2081 C   0  0  0  0  0  0  0  0  0  0  0  0
   -1.4314   -1.7029   -0.9212 S   0  0  0  0  0  0  0  0  0  0  0  0
   -1.9716   -2.6198    0.0624 O   0  0  0  0  0  0  0  0  0  0  0  0
   -1.0987   -2.0882   -2.2763 O   0  0  0  0  0  0  0  0  0  0  0  0
   -2.5483   -0.4712   -1.0550 N   0  0  0  0  0  0  0  0  0  0  0  0
   -3.0177    0.3290    0.0810 C   0  0  0  0  0  0  0  0  0  0  0  0
   -3.0707    1.5822   -0.7496 C   0  0  0  0  0  2  0  0  0  0  0  0
   -2.3126    0.7851   -1.7744 C   0  0  0  0  0  0  0  0  0  0  0  0
    0.1640   -0.9415    1.1767 C   0  0  0  0  0  0  0  0  0  0  0  0
    1.2607   -0.2923    1.7375 C   0  0  0  0  0  0  0  0  0  0  0  0
    3.2112    1.2933    2.6028 H   0  0  0  0  0  0  0  0  0  0  0  0
    3.6491    1.9680    1.0115 H   0  0  0  0  0  0  0  0  0  0  0  0
    4.2736    0.3845    1.5084 H   0  0  0  0  0  0  0  0  0  0  0  0
    2.7507    0.8562   -1.0949 H   0  0  0  0  0  0  0  0  0  0  0  0
    0.8096   -0.3372   -2.1195 H   0  0  0  0  0  0  0  0  0  0  0  0
   -3.9319   -0.0105    0.5910 H   0  0  0  0  0  0  0  0  0  0  0  0
   -2.2399    0.5150    0.8572 H   0  0  0  0  0  0  0  0  0  0  0  0
   -1.2642    1.1570   -1.7047 H   0  0  0  0  0  0  0  0  0  0  0  0
   -2.6202    0.8303   -2.8299 H   0  0  0  0  0  0  0  0  0  0  0  0
   -0.5565   -1.4823    1.7926 H   0  0  0  0  0  0  0  0  0  0  0  0
    1.3964   -0.3049    2.8208 H   0  0  0  0  0  0  0  0  0  0  0  0
  2  1  1  0
  3  2  1  0
  4  3  1  0
  5  4  1  0
  6  5  1  0
  7  6  1  0
  8  6  1  0
  9  6  1  0
 10  9  1  0
 11 10  1  0
 12 11  1  0
 12  9  1  0
 13  5  1  0
 14 13  1  0
 14  2  1  0
 15  1  1  0
 16  1  1  0
 17  1  1  0
 18  3  1  0
 19  4  1  0
 20 10  1  0
 21 10  1  0
 22 12  1  0
 23 12  1  0
 24 13  1  0
 25 14  1  0
M  CHG  8   2  -1   3   1   4  -1   5   1   6   2   7  -1   8  -1  13   1
M  CHG  1  14  -1
M  RAD  1  11   3
M  END
