
     RDKit          3D

 60 63  0  0  0  0  0  0  0  0999 V2000
   -3.9115   -0.1697    3.8072 C   0  0  0  0  0  0  0  0  0  0  0  0
   -3.2888   -1.3732    3.4380 O   0  0  0  0  0  0  0  0  0  0  0  0
   -2.7092   -1.4623    2.2262 C   0  0  0  0  0  0  0  0  0  0  0  0
   -2.7153   -0.4210    1.2919 C   0  0  0  0  0  0  0  0  0  0  0  0
   -2.0741   -0.6190    0.0603 C   0  0  0  0  0  0  0  0  0  0  0  0
   -2.0165    0.3227   -0.8975 O   0  0  0  0  0  0  0  0  0  0  0  0
   -2.5718    1.5918   -0.6657 C   0  0  0  0  0  0  0  0  0  0  0  0
   -1.4583   -1.8410   -0.2405 C   0  0  0  0  0  0  0  0  0  0  0  0
   -0.4293   -2.0462   -1.7158 S   0  0  0  0  0  0  0  0  0  0  0  0
   -1.6208   -1.5372   -2.9863 C   0  0  0  0  0  0  0  0  0  0  0  0
   -2.9214   -2.0347   -2.9689 C   0  0  0  0  0  0  0  0  0  0  0  0
   -3.7980   -1.6960   -3.9963 C   0  0  0  0  0  0  0  0  0  0  0  0
   -3.3538   -0.8679   -5.0280 C   0  0  0  0  0  0  0  0  0  0  0  0
   -4.4487   -0.4410   -6.3086 Cl  0  0  0  0  0  0  0  0  0  0  0  0
   -2.0495   -0.3790   -5.0484 C   0  0  0  0  0  0  0  0  0  0  0  0
   -1.1744   -0.7231   -4.0196 C   0  0  0  0  0  0  0  0  0  0  0  0
    0.8650   -1.0163   -1.7613 C   0  0  0  0  0  0  0  0  0  0  0  0
    1.0394    0.3242   -1.0711 C   0  0  0  0  0  0  0  0  0  0  0  0
    2.4019   -0.1178   -0.6733 N   0  0  0  0  0  0  0  0  0  0  0  0
    3.7223    0.7990   -1.0966 S   0  0  0  0  0  6  0  0  0  0  0  0
    4.8500   -0.1167   -1.0493 O   0  0  0  0  0  0  0  0  0  0  0  0
    3.4659    1.5880   -2.2956 O   0  0  0  0  0  0  0  0  0  0  0  0
    3.8518    1.9443    0.2578 C   0  0  0  0  0  0  0  0  0  0  0  0
    3.6782    3.3027    0.0208 C   0  0  0  0  0  0  0  0  0  0  0  0
    3.8431    4.1980    1.0778 C   0  0  0  0  0  0  0  0  0  0  0  0
    4.1834    3.7482    2.3570 C   0  0  0  0  0  0  0  0  0  0  0  0
    4.4030    4.7200    3.4864 C   0  0  0  0  0  0  0  0  0  0  0  0
    4.3496    2.3698    2.5640 C   0  0  0  0  0  0  0  0  0  0  0  0
    4.1924    1.4642    1.5223 C   0  0  0  0  0  0  0  0  0  0  0  0
    2.2721   -1.4368   -1.3611 C   0  0  0  0  0  0  0  0  0  0  0  0
   -1.4586   -2.8715    0.7188 C   0  0  0  0  0  0  0  0  0  0  0  0
   -0.8349   -4.0103    0.3705 O   0  0  0  0  0  0  0  0  0  0  0  0
   -0.7505   -5.0549    1.3081 C   0  0  0  0  0  0  0  0  0  0  0  0
   -2.0874   -2.6862    1.9482 C   0  0  0  0  0  0  0  0  0  0  0  0
   -4.7469    0.0748    3.1313 H   0  0  0  0  0  0  0  0  0  0  0  0
   -3.1958    0.6685    3.8141 H   0  0  0  0  0  0  0  0  0  0  0  0
   -4.3031   -0.3163    4.8195 H   0  0  0  0  0  0  0  0  0  0  0  0
   -3.1949    0.5275    1.5133 H   0  0  0  0  0  0  0  0  0  0  0  0
   -2.0903    2.0871    0.1931 H   0  0  0  0  0  0  0  0  0  0  0  0
   -2.3838    2.1773   -1.5719 H   0  0  0  0  0  0  0  0  0  0  0  0
   -3.6577    1.5284   -0.4930 H   0  0  0  0  0  0  0  0  0  0  0  0
   -3.2554   -2.6756   -2.1499 H   0  0  0  0  0  0  0  0  0  0  0  0
   -4.8224   -2.0680   -4.0073 H   0  0  0  0  0  0  0  0  0  0  0  0
   -1.7266    0.2636   -5.8677 H   0  0  0  0  0  0  0  0  0  0  0  0
   -0.1404   -0.3695   -3.9968 H   0  0  0  0  0  0  0  0  0  0  0  0
    0.4097    0.5213   -0.1848 H   0  0  0  0  0  0  0  0  0  0  0  0
    1.0466    1.2186   -1.7186 H   0  0  0  0  0  0  0  0  0  0  0  0
    3.4276    3.6388   -0.9862 H   0  0  0  0  0  0  0  0  0  0  0  0
    3.7122    5.2680    0.9021 H   0  0  0  0  0  0  0  0  0  0  0  0
    4.0058    4.3275    4.4327 H   0  0  0  0  0  0  0  0  0  0  0  0
    5.4787    4.9041    3.6324 H   0  0  0  0  0  0  0  0  0  0  0  0
    3.9241    5.6864    3.2818 H   0  0  0  0  0  0  0  0  0  0  0  0
    4.6169    2.0067    3.5589 H   0  0  0  0  0  0  0  0  0  0  0  0
    4.3338    0.3927    1.6722 H   0  0  0  0  0  0  0  0  0  0  0  0
    2.9976   -1.5640   -2.1817 H   0  0  0  0  0  0  0  0  0  0  0  0
    2.3927   -2.2756   -0.6563 H   0  0  0  0  0  0  0  0  0  0  0  0
   -0.2053   -4.7371    2.2111 H   0  0  0  0  0  0  0  0  0  0  0  0
   -0.2008   -5.8654    0.8182 H   0  0  0  0  0  0  0  0  0  0  0  0
   -1.7502   -5.4163    1.5967 H   0  0  0  0  0  0  0  0  0  0  0  0
   -2.1174   -3.4546    2.7168 H   0  0  0  0  0  0  0  0  0  0  0  0
  2  1  1  0
  3  2  1  0
  4  3  2  0
  5  4  1  0
  6  5  1  0
  7  6  1  0
  8  5  2  0
  9  8  1  0
 10  9  1  0
 11 10  2  0
 12 11  1  0
 13 12  2  0
 14 13  1  0
 15 13  1  0
 16 15  2  0
 16 10  1  0
  9 17  1  1
 18 17  1  0
 19 18  1  0
 20 19  1  0
 21 20  2  0
 22 20  2  0
 23 20  1  0
 24 23  2  0
 25 24  1  0
 26 25  2  0
 27 26  1  0
 28 26  1  0
 29 28  2  0
 29 23  1  0
 30 19  1  0
 30 17  1  0
 31  8  1  0
 32 31  1  0
 33 32  1  0
 34 31  2  0
 34  3  1  0
 35  1  1  0
 36  1  1  0
 37  1  1  0
 38  4  1  0
 39  7  1  0
 40  7  1  0
 41  7  1  0
 42 11  1  0
 43 12  1  0
 44 15  1  0
 45 16  1  0
 46 18  1  0
 47 18  1  0
 48 24  1  0
 49 25  1  0
 50 27  1  0
 51 27  1  0
 52 27  1  0
 53 28  1  0
 54 29  1  0
 55 30  1  0
 56 30  1  0
 57 33  1  0
 58 33  1  0
 59 33  1  0
 60 34  1  0
M  CHG  2   9   1  17  -1
M  END
