
     RDKit          3D

 43 45  0  0  0  0  0  0  0  0999 V2000
    3.0437    0.1709   -3.9820 C   0  0  0  0  0  0  0  0  0  0  0  0
    3.4254   -0.0424   -2.6475 O   0  0  0  0  0  0  0  0  0  0  0  0
    2.4790   -0.0334   -1.6899 C   0  0  0  0  0  0  0  0  0  0  0  0
    2.9428   -0.2442   -0.3850 C   0  0  0  0  0  0  0  0  0  0  0  0
    2.0338   -0.2481    0.6715 C   0  0  0  0  0  0  0  0  0  0  0  0
    2.3910   -0.4313    1.9553 O   0  0  0  0  0  0  0  0  0  0  0  0
    3.7548   -0.5737    2.2656 C   0  0  0  0  0  0  0  0  0  0  0  0
    0.6611   -0.0590    0.4276 C   0  0  0  0  0  0  0  0  0  0  0  0
   -0.4579    0.1409    1.8388 S   0  0  0  0  0  0  0  0  0  0  0  0
   -1.7503   -1.0235    1.3171 C   0  0  0  0  0  0  0  0  0  0  0  0
   -1.4011   -2.3068    0.9043 C   0  0  0  0  0  0  0  0  0  0  0  0
   -2.4004   -3.2111    0.5543 C   0  0  0  0  0  0  0  0  0  0  0  0
   -3.7355   -2.8132    0.6271 C   0  0  0  0  0  0  0  0  0  0  0  0
   -4.9855   -3.9354    0.1790 Cl  0  0  0  0  0  0  0  0  0  0  0  0
   -4.0836   -1.5331    1.0537 C   0  0  0  0  0  0  0  0  0  0  0  0
   -3.0797   -0.6332    1.4072 C   0  0  0  0  0  0  0  0  0  0  0  0
   -1.1229    1.6564    1.9426 C   0  0  0  0  0  0  0  0  0  0  0  0
   -1.2258    2.7198    0.8674 C   0  0  0  0  0  0  0  0  0  0  0  0
   -0.8181    3.7191    1.8027 O   0  0  0  0  0  0  0  0  0  0  0  0
   -0.5781    2.7602    2.8377 C   0  0  0  0  0  0  0  0  0  0  0  0
    0.2184    0.1665   -0.8825 C   0  0  0  0  0  0  0  0  0  0  0  0
   -1.1031    0.3625   -1.0326 O   0  0  0  0  0  0  0  0  0  0  0  0
   -1.6258    0.6530   -2.3030 C   0  0  0  0  0  0  0  0  0  0  0  0
    1.1211    0.1728   -1.9551 C   0  0  0  0  0  0  0  0  0  0  0  0
    2.5710    1.1582   -4.1118 H   0  0  0  0  0  0  0  0  0  0  0  0
    3.9600    0.1322   -4.5806 H   0  0  0  0  0  0  0  0  0  0  0  0
    2.3499   -0.6105   -4.3329 H   0  0  0  0  0  0  0  0  0  0  0  0
    4.0105   -0.3945   -0.2455 H   0  0  0  0  0  0  0  0  0  0  0  0
    4.3302    0.3125    1.9541 H   0  0  0  0  0  0  0  0  0  0  0  0
    4.1831   -1.4698    1.7886 H   0  0  0  0  0  0  0  0  0  0  0  0
    3.8157   -0.6800    3.3537 H   0  0  0  0  0  0  0  0  0  0  0  0
   -0.3502   -2.5989    0.8436 H   0  0  0  0  0  0  0  0  0  0  0  0
   -2.1549   -4.2218    0.2283 H   0  0  0  0  0  0  0  0  0  0  0  0
   -5.1352   -1.2496    1.1024 H   0  0  0  0  0  0  0  0  0  0  0  0
   -3.2991    0.3828    1.7460 H   0  0  0  0  0  0  0  0  0  0  0  0
   -2.2259    2.9328    0.4445 H   0  0  0  0  0  0  0  0  0  0  0  0
   -0.5068    2.6294    0.0260 H   0  0  0  0  0  0  0  0  0  0  0  0
    0.4918    2.7105    3.1190 H   0  0  0  0  0  0  0  0  0  0  0  0
   -1.1650    2.9979    3.7432 H   0  0  0  0  0  0  0  0  0  0  0  0
   -1.2055    1.5916   -2.7003 H   0  0  0  0  0  0  0  0  0  0  0  0
   -1.4336   -0.1663   -3.0140 H   0  0  0  0  0  0  0  0  0  0  0  0
   -2.7071    0.7670   -2.1716 H   0  0  0  0  0  0  0  0  0  0  0  0
    0.7677    0.3426   -2.9676 H   0  0  0  0  0  0  0  0  0  0  0  0
  2  1  1  0
  3  2  1  0
  4  3  2  0
  5  4  1  0
  6  5  1  0
  7  6  1  0
  8  5  2  0
  9  8  1  0
 10  9  1  0
 11 10  2  0
 12 11  1  0
 13 12  2  0
 14 13  1  0
 15 13  1  0
 16 15  2  0
 16 10  1  0
  9 17  1  6
 18 17  1  0
 19 18  1  0
 20 19  1  0
 20 17  1  0
 21  8  1  0
 22 21  1  0
 23 22  1  0
 24 21  2  0
 24  3  1  0
 25  1  1  0
 26  1  1  0
 27  1  1  0
 28  4  1  0
 29  7  1  0
 30  7  1  0
 31  7  1  0
 32 11  1  0
 33 12  1  0
 34 15  1  0
 35 16  1  0
 36 18  1  0
 37 18  1  0
 38 20  1  0
 39 20  1  0
 40 23  1  0
 41 23  1  0
 42 23  1  0
 43 24  1  0
M  CHG  2   9   1  17  -1
M  END
