
     RDKit          3D

 35 36  0  0  0  0  0  0  0  0999 V2000
   -4.2093   -1.9367    1.5396 C   0  0  0  0  0  0  0  0  0  0  0  0
   -3.7232   -1.2224    0.4341 O   0  0  0  0  0  0  0  0  0  0  0  0
   -2.5347   -0.5920    0.5354 C   0  0  0  0  0  0  0  0  0  0  0  0
   -1.7409   -0.6319    1.6837 C   0  0  0  0  0  0  0  0  0  0  0  0
   -0.5175    0.0592    1.6892 C   0  0  0  0  0  0  0  0  0  0  0  0
    0.3035    0.0620    2.7532 O   0  0  0  0  0  0  0  0  0  0  0  0
   -0.0778   -0.6174    3.9189 C   0  0  0  0  0  0  0  0  0  0  0  0
   -0.0969    0.7909    0.5680 C   0  0  0  0  0  0  0  0  0  0  0  0
    1.3892    1.7387    0.6347 S   0  0  0  0  0  0  0  0  0  0  0  0
    2.4365    0.9584   -0.5663 C   0  0  0  0  0  0  0  0  0  0  0  0
    2.1498   -0.2517   -1.2049 C   0  0  0  0  0  0  0  0  0  0  0  0
    3.0555   -0.7842   -2.1221 C   0  0  0  0  0  0  0  0  0  0  0  0
    4.2516   -0.1276   -2.4085 C   0  0  0  0  0  0  0  0  0  0  0  0
    4.5384    1.0773   -1.7663 C   0  0  0  0  0  0  0  0  0  0  0  0
    3.6377    1.6202   -0.8553 C   0  0  0  0  0  0  0  0  0  0  0  0
   -0.9251    0.8170   -0.5763 C   0  0  0  0  0  0  0  0  0  0  0  0
   -0.4599    1.5208   -1.6186 O   0  0  0  0  0  0  0  0  0  0  0  0
   -1.1861    1.5265   -2.8198 C   0  0  0  0  0  0  0  0  0  0  0  0
   -2.1311    0.1184   -0.6016 C   0  0  0  0  0  0  0  0  0  0  0  0
   -3.5384   -2.7682    1.8114 H   0  0  0  0  0  0  0  0  0  0  0  0
   -5.1827   -2.3434    1.2448 H   0  0  0  0  0  0  0  0  0  0  0  0
   -4.3416   -1.2807    2.4157 H   0  0  0  0  0  0  0  0  0  0  0  0
   -2.0583   -1.1905    2.5586 H   0  0  0  0  0  0  0  0  0  0  0  0
    0.7221   -0.4559    4.6495 H   0  0  0  0  0  0  0  0  0  0  0  0
   -1.0226   -0.2210    4.3258 H   0  0  0  0  0  0  0  0  0  0  0  0
   -0.1888   -1.6996    3.7401 H   0  0  0  0  0  0  0  0  0  0  0  0
    1.2231   -0.7819   -0.9797 H   0  0  0  0  0  0  0  0  0  0  0  0
    2.8214   -1.7293   -2.6158 H   0  0  0  0  0  0  0  0  0  0  0  0
    4.9558   -0.5507   -3.1260 H   0  0  0  0  0  0  0  0  0  0  0  0
    5.4704    1.6040   -1.9782 H   0  0  0  0  0  0  0  0  0  0  0  0
    3.8605    2.5682   -0.3606 H   0  0  0  0  0  0  0  0  0  0  0  0
   -2.1846    1.9728   -2.6846 H   0  0  0  0  0  0  0  0  0  0  0  0
   -1.2982    0.5077   -3.2248 H   0  0  0  0  0  0  0  0  0  0  0  0
   -0.6100    2.1350   -3.5247 H   0  0  0  0  0  0  0  0  0  0  0  0
   -2.7874    0.1081   -1.4685 H   0  0  0  0  0  0  0  0  0  0  0  0
  2  1  1  0
  3  2  1  0
  4  3  2  0
  5  4  1  0
  6  5  1  0
  7  6  1  0
  8  5  2  0
  9  8  1  0
 10  9  1  0
 11 10  2  0
 12 11  1  0
 13 12  2  0
 14 13  1  0
 15 14  2  0
 15 10  1  0
 16  8  1  0
 17 16  1  0
 18 17  1  0
 19 16  2  0
 19  3  1  0
 20  1  1  0
 21  1  1  0
 22  1  1  0
 23  4  1  0
 24  7  1  0
 25  7  1  0
 26  7  1  0
 27 11  1  0
 28 12  1  0
 29 13  1  0
 30 14  1  0
 31 15  1  0
 32 18  1  0
 33 18  1  0
 34 18  1  0
 35 19  1  0
M  END
