
     RDKit          3D

 45 47  0  0  0  0  0  0  0  0999 V2000
    5.1271    0.2404   -0.4176 C   0  0  0  0  0  0  0  0  0  0  0  0
    4.2143    0.1629   -1.4806 O   0  0  0  0  0  0  0  0  0  0  0  0
    2.8984    0.0588   -1.2052 C   0  0  0  0  0  0  0  0  0  0  0  0
    2.3896   -0.0066    0.0954 C   0  0  0  0  0  0  0  0  0  0  0  0
    1.0009   -0.1016    0.2702 C   0  0  0  0  0  0  0  0  0  0  0  0
    0.4201   -0.1875    1.4794 O   0  0  0  0  0  0  0  0  0  0  0  0
    1.1901    0.0018    2.6355 C   0  0  0  0  0  0  0  0  0  0  0  0
    0.1352   -0.1279   -0.8303 C   0  0  0  0  0  0  0  0  0  0  0  0
   -1.6627    0.0774   -0.6131 S   0  0  0  0  0  0  0  0  0  0  0  0
   -1.9727   -1.3547    0.4561 C   0  0  0  0  0  0  0  0  0  0  0  0
   -1.4002   -2.5888    0.1539 C   0  0  0  0  0  0  0  0  0  0  0  0
   -1.7167   -3.6944    0.9406 C   0  0  0  0  0  0  0  0  0  0  0  0
   -2.5972   -3.5630    2.0159 C   0  0  0  0  0  0  0  0  0  0  0  0
   -3.1652   -2.3220    2.3013 C   0  0  0  0  0  0  0  0  0  0  0  0
   -2.8590   -1.2100    1.5164 C   0  0  0  0  0  0  0  0  0  0  0  0
   -2.0817    1.4577    0.2164 C   0  0  0  0  0  0  0  0  0  0  0  0
   -1.3295    2.1982    1.3033 C   0  0  0  0  0  0  0  0  0  0  0  0
   -2.1419    3.4452    0.8768 C   0  0  0  0  0  0  0  0  0  0  0  0
   -2.5030    2.7541   -0.4635 C   0  0  0  0  0  0  0  0  0  0  0  0
    0.6731   -0.0710   -2.1286 C   0  0  0  0  0  0  0  0  0  0  0  0
   -0.2135   -0.1096   -3.1406 O   0  0  0  0  0  0  0  0  0  0  0  0
    0.2599   -0.0158   -4.4597 C   0  0  0  0  0  0  0  0  0  0  0  0
    2.0518    0.0168   -2.3202 C   0  0  0  0  0  0  0  0  0  0  0  0
    6.1205    0.3532   -0.8653 H   0  0  0  0  0  0  0  0  0  0  0  0
    4.9199    1.1109    0.2260 H   0  0  0  0  0  0  0  0  0  0  0  0
    5.1108   -0.6740    0.1984 H   0  0  0  0  0  0  0  0  0  0  0  0
    3.0498    0.0134    0.9573 H   0  0  0  0  0  0  0  0  0  0  0  0
    0.4951   -0.0425    3.4811 H   0  0  0  0  0  0  0  0  0  0  0  0
    1.6880    0.9856    2.6241 H   0  0  0  0  0  0  0  0  0  0  0  0
    1.9478   -0.7901    2.7521 H   0  0  0  0  0  0  0  0  0  0  0  0
   -0.7046   -2.6803   -0.6833 H   0  0  0  0  0  0  0  0  0  0  0  0
   -1.2736   -4.6655    0.7130 H   0  0  0  0  0  0  0  0  0  0  0  0
   -2.8435   -4.4314    2.6289 H   0  0  0  0  0  0  0  0  0  0  0  0
   -3.8562   -2.2178    3.1398 H   0  0  0  0  0  0  0  0  0  0  0  0
   -3.2886   -0.2216    1.6967 H   0  0  0  0  0  0  0  0  0  0  0  0
   -0.2484    2.3300    1.0886 H   0  0  0  0  0  0  0  0  0  0  0  0
   -1.4304    1.8579    2.3480 H   0  0  0  0  0  0  0  0  0  0  0  0
   -1.5960    4.3966    0.8141 H   0  0  0  0  0  0  0  0  0  0  0  0
   -3.0301    3.5788    1.5085 H   0  0  0  0  0  0  0  0  0  0  0  0
   -3.5472    2.8485   -0.8014 H   0  0  0  0  0  0  0  0  0  0  0  0
   -1.8410    3.0977   -1.2804 H   0  0  0  0  0  0  0  0  0  0  0  0
    0.9107   -0.8679   -4.7143 H   0  0  0  0  0  0  0  0  0  0  0  0
    0.8144    0.9226   -4.6205 H   0  0  0  0  0  0  0  0  0  0  0  0
   -0.6233   -0.0290   -5.1070 H   0  0  0  0  0  0  0  0  0  0  0  0
    2.5088    0.0644   -3.3058 H   0  0  0  0  0  0  0  0  0  0  0  0
  2  1  1  0
  3  2  1  0
  4  3  2  0
  5  4  1  0
  6  5  1  0
  7  6  1  0
  8  5  2  0
  9  8  1  0
 10  9  1  0
 11 10  2  0
 12 11  1  0
 13 12  2  0
 14 13  1  0
 15 14  2  0
 15 10  1  0
  9 16  1  1
 17 16  1  0
 18 17  1  0
 19 18  1  0
 19 16  1  0
 20  8  1  0
 21 20  1  0
 22 21  1  0
 23 20  2  0
 23  3  1  0
 24  1  1  0
 25  1  1  0
 26  1  1  0
 27  4  1  0
 28  7  1  0
 29  7  1  0
 30  7  1  0
 31 11  1  0
 32 12  1  0
 33 13  1  0
 34 14  1  0
 35 15  1  0
 36 17  1  0
 37 17  1  0
 38 18  1  0
 39 18  1  0
 40 19  1  0
 41 19  1  0
 42 22  1  0
 43 22  1  0
 44 22  1  0
 45 23  1  0
M  CHG  2   9   1  16  -1
M  END
