
     RDKit          3D

 35 36  0  0  0  0  0  0  0  0999 V2000
   -4.1826    1.6883   -1.6129 C   0  0  0  0  0  0  0  0  0  0  0  0
   -3.7452    1.1346   -0.4007 O   0  0  0  0  0  0  0  0  0  0  0  0
   -2.5826    0.4504   -0.3795 C   0  0  0  0  0  0  0  0  0  0  0  0
   -2.2049   -0.0531    0.8698 C   0  0  0  0  0  0  0  0  0  0  0  0
   -1.0272   -0.7911    0.9828 C   0  0  0  0  0  0  0  0  0  0  0  0
   -0.5944   -1.3025    2.1459 O   0  0  0  0  0  0  0  0  0  0  0  0
   -1.3738   -1.1144    3.2980 C   0  0  0  0  0  0  0  0  0  0  0  0
   -0.2166   -1.0323   -0.1485 C   0  0  0  0  0  0  0  0  0  0  0  0
    1.2082   -2.0762   -0.0059 S   0  0  0  0  0  0  0  0  0  0  0  0
    2.4298   -0.9150    0.5752 C   0  0  0  0  0  0  0  0  0  0  0  0
    2.7128    0.2549   -0.1384 C   0  0  0  0  0  0  0  0  0  0  0  0
    3.7134    1.1184    0.2953 C   0  0  0  0  0  0  0  0  0  0  0  0
    4.4473    0.7963    1.4377 C   0  0  0  0  0  0  0  0  0  0  0  0
    5.7167    1.8624    1.9662 Cl  0  0  0  0  0  0  0  0  0  0  0  0
    4.1792   -0.3644    2.1577 C   0  0  0  0  0  0  0  0  0  0  0  0
    3.1618   -1.2150    1.7259 C   0  0  0  0  0  0  0  0  0  0  0  0
   -0.6035   -0.4915   -1.3841 C   0  0  0  0  0  0  0  0  0  0  0  0
    0.2259   -0.7042   -2.4247 O   0  0  0  0  0  0  0  0  0  0  0  0
   -0.1103   -0.1960   -3.6884 C   0  0  0  0  0  0  0  0  0  0  0  0
   -1.7903    0.2486   -1.5118 C   0  0  0  0  0  0  0  0  0  0  0  0
   -3.4631    2.4273   -2.0021 H   0  0  0  0  0  0  0  0  0  0  0  0
   -4.3459    0.9105   -2.3771 H   0  0  0  0  0  0  0  0  0  0  0  0
   -5.1339    2.1896   -1.4048 H   0  0  0  0  0  0  0  0  0  0  0  0
   -2.8578    0.1533    1.7140 H   0  0  0  0  0  0  0  0  0  0  0  0
   -0.8499   -1.6234    4.1140 H   0  0  0  0  0  0  0  0  0  0  0  0
   -1.4774   -0.0451    3.5432 H   0  0  0  0  0  0  0  0  0  0  0  0
   -2.3769   -1.5551    3.1794 H   0  0  0  0  0  0  0  0  0  0  0  0
    2.1460    0.4737   -1.0455 H   0  0  0  0  0  0  0  0  0  0  0  0
    3.9460    2.0305   -0.2546 H   0  0  0  0  0  0  0  0  0  0  0  0
    4.7591   -0.5921    3.0521 H   0  0  0  0  0  0  0  0  0  0  0  0
    2.9222   -2.1166    2.2918 H   0  0  0  0  0  0  0  0  0  0  0  0
    0.6997   -0.4900   -4.3646 H   0  0  0  0  0  0  0  0  0  0  0  0
   -1.0592   -0.6188   -4.0564 H   0  0  0  0  0  0  0  0  0  0  0  0
   -0.1873    0.9037   -3.6745 H   0  0  0  0  0  0  0  0  0  0  0  0
   -2.0849    0.6544   -2.4746 H   0  0  0  0  0  0  0  0  0  0  0  0
  2  1  1  0
  3  2  1  0
  4  3  2  0
  5  4  1  0
  6  5  1  0
  7  6  1  0
  8  5  2  0
  9  8  1  0
 10  9  1  0
 11 10  2  0
 12 11  1  0
 13 12  2  0
 14 13  1  0
 15 13  1  0
 16 15  2  0
 16 10  1  0
 17  8  1  0
 18 17  1  0
 19 18  1  0
 20 17  2  0
 20  3  1  0
 21  1  1  0
 22  1  1  0
 23  1  1  0
 24  4  1  0
 25  7  1  0
 26  7  1  0
 27  7  1  0
 28 11  1  0
 29 12  1  0
 30 15  1  0
 31 16  1  0
 32 19  1  0
 33 19  1  0
 34 19  1  0
 35 20  1  0
M  END
