
     RDKit          3D

  8  8  0  0  0  0  0  0  0  0999 V2000
    0.0080    0.0604    1.1081 C   0  0  0  0  0  2  0  0  0  0  0  0
   -0.9802    0.0201   -0.0051 C   0  0  0  0  0  0  0  0  0  0  0  0
   -0.0075   -0.0606   -1.0506 O   0  0  0  0  0  0  0  0  0  0  0  0
    0.9800   -0.0226   -0.0169 C   0  0  0  0  0  0  0  0  0  0  0  0
   -1.6135    0.9277   -0.0478 H   0  0  0  0  0  0  0  0  0  0  0  0
   -1.6547   -0.8562    0.0497 H   0  0  0  0  0  0  0  0  0  0  0  0
    1.6503    0.8576   -0.0668 H   0  0  0  0  0  0  0  0  0  0  0  0
    1.6177   -0.9265    0.0293 H   0  0  0  0  0  0  0  0  0  0  0  0
  2  1  1  0
  3  2  1  0
  4  1  1  0
  4  3  1  0
  5  2  1  0
  6  2  1  0
  7  4  1  0
  8  4  1  0
M  END
