
     RDKit          3D

 10 10  0  0  0  0  0  0  0  0999 V2000
   -0.0082   -1.2553   -0.6416 C   0  0  0  0  0  2  0  0  0  0  0  0
    1.0399   -0.2572   -0.2253 C   0  0  0  0  0  0  0  0  0  0  0  0
    0.0046    0.7202    0.3669 C   0  0  0  0  0  0  0  0  0  0  0  0
   -1.0435   -0.3222   -0.0714 C   0  0  0  0  0  0  0  0  0  0  0  0
    1.6325    0.0850   -1.0936 H   0  0  0  0  0  0  0  0  0  0  0  0
    1.7741   -0.7088    0.4667 H   0  0  0  0  0  0  0  0  0  0  0  0
    0.0799    0.8832    1.4502 H   0  0  0  0  0  0  0  0  0  0  0  0
   -0.0640    1.6945   -0.1349 H   0  0  0  0  0  0  0  0  0  0  0  0
   -1.7813   -0.0205   -0.8372 H   0  0  0  0  0  0  0  0  0  0  0  0
   -1.6341   -0.8191    0.7202 H   0  0  0  0  0  0  0  0  0  0  0  0
  2  1  1  0
  3  2  1  0
  4  3  1  0
  4  1  1  0
  5  2  1  0
  6  2  1  0
  7  3  1  0
  8  3  1  0
  9  4  1  0
 10  4  1  0
M  RAD  1   1   3
M  END
