
     RDKit          3D

 25 26  0  0  0  0  0  0  0  0999 V2000
    3.4120    1.0353    1.5541 C   0  0  0  0  0  0  0  0  0  0  0  0
    2.2139    0.3636    0.9410 C   0  0  0  0  0  0  0  0  0  0  0  0
    2.0240    0.3673   -0.4491 C   0  0  0  0  0  0  0  0  0  0  0  0
    0.9329   -0.2745   -1.0276 C   0  0  0  0  0  0  0  0  0  0  0  0
    0.0125   -0.9198   -0.1973 C   0  0  0  0  0  0  0  0  0  0  0  0
   -1.4227   -1.6850   -0.9056 S   0  0  0  0  0  0  0  0  0  0  0  0
   -1.9663   -2.6214    0.0665 O   0  0  0  0  0  0  0  0  0  0  0  0
   -1.0977   -2.1024   -2.2600 O   0  0  0  0  0  0  0  0  0  0  0  0
   -2.5583   -0.4809   -1.0609 N   0  0  0  0  0  0  0  0  0  0  0  0
   -3.0409    0.3339    0.0678 C   0  0  0  0  0  0  0  0  0  0  0  0
   -3.0889    1.5715   -0.7752 C   0  0  0  0  0  2  0  0  0  0  0  0
   -2.3312    0.7772   -1.7936 C   0  0  0  0  0  0  0  0  0  0  0  0
    0.1787   -0.9451    1.1875 C   0  0  0  0  0  0  0  0  0  0  0  0
    1.2806   -0.3029    1.7458 C   0  0  0  0  0  0  0  0  0  0  0  0
    3.2305    1.2796    2.6087 H   0  0  0  0  0  0  0  0  0  0  0  0
    3.6699    1.9551    1.0124 H   0  0  0  0  0  0  0  0  0  0  0  0
    4.2876    0.3691    1.5092 H   0  0  0  0  0  0  0  0  0  0  0  0
    2.7472    0.8780   -1.0886 H   0  0  0  0  0  0  0  0  0  0  0  0
    0.8005   -0.2886   -2.1112 H   0  0  0  0  0  0  0  0  0  0  0  0
   -3.9606   -0.0036    0.5696 H   0  0  0  0  0  0  0  0  0  0  0  0
   -2.2716    0.5268    0.8499 H   0  0  0  0  0  0  0  0  0  0  0  0
   -1.2839    1.1525   -1.7366 H   0  0  0  0  0  0  0  0  0  0  0  0
   -2.6471    0.8107   -2.8474 H   0  0  0  0  0  0  0  0  0  0  0  0
   -0.5414   -1.4751    1.8127 H   0  0  0  0  0  0  0  0  0  0  0  0
    1.4202   -0.3211    2.8285 H   0  0  0  0  0  0  0  0  0  0  0  0
  2  1  1  0
  3  2  1  0
  4  3  1  0
  5  4  1  0
  6  5  1  0
  7  6  1  0
  8  6  1  0
  9  6  1  0
 10  9  1  0
 11 10  1  0
 12 11  1  0
 12  9  1  0
 13  5  1  0
 14 13  1  0
 14  2  1  0
 15  1  1  0
 16  1  1  0
 17  1  1  0
 18  3  1  0
 19  4  1  0
 20 10  1  0
 21 10  1  0
 22 12  1  0
 23 12  1  0
 24 13  1  0
 25 14  1  0
M  CHG  8   2  -1   3   1   4  -1   5   1   6   2   7  -1   8  -1  13   1
M  CHG  1  14  -1
M  RAD  1  11   3
M  END
