
     RDKit          3D

 60 63  0  0  0  0  0  0  0  0999 V2000
   -3.8816   -0.1748    3.7929 C   0  0  0  0  0  0  0  0  0  0  0  0
   -3.2628   -1.3867    3.4131 O   0  0  0  0  0  0  0  0  0  0  0  0
   -2.6693   -1.4645    2.2099 C   0  0  0  0  0  0  0  0  0  0  0  0
   -2.6462   -0.4025    1.2979 C   0  0  0  0  0  0  0  0  0  0  0  0
   -1.9920   -0.5849    0.0723 C   0  0  0  0  0  0  0  0  0  0  0  0
   -1.9114    0.3704   -0.8673 O   0  0  0  0  0  0  0  0  0  0  0  0
   -2.4704    1.6439   -0.6190 C   0  0  0  0  0  0  0  0  0  0  0  0
   -1.3873   -1.8129   -0.2413 C   0  0  0  0  0  0  0  0  0  0  0  0
   -0.4139   -2.0130   -1.7378 S   0  0  0  0  0  0  0  0  0  0  0  0
   -1.6451   -1.5071   -2.9716 C   0  0  0  0  0  0  0  0  0  0  0  0
   -2.9461   -2.0004   -2.8863 C   0  0  0  0  0  0  0  0  0  0  0  0
   -3.8744   -1.6596   -3.8670 C   0  0  0  0  0  0  0  0  0  0  0  0
   -3.4781   -0.8364   -4.9218 C   0  0  0  0  0  0  0  0  0  0  0  0
   -4.6386   -0.3992   -6.1440 Cl  0  0  0  0  0  0  0  0  0  0  0  0
   -2.1734   -0.3569   -5.0166 C   0  0  0  0  0  0  0  0  0  0  0  0
   -1.2483   -0.7013   -4.0315 C   0  0  0  0  0  0  0  0  0  0  0  0
    0.9011   -0.9852   -1.8205 C   0  0  0  0  0  0  0  0  0  0  0  0
    1.1086    0.2866   -1.0109 C   0  0  0  0  0  0  0  0  0  0  0  0
    2.4672   -0.2179   -0.6497 N   0  0  0  0  0  0  0  0  0  0  0  0
    3.7915    0.7024   -1.0341 S   0  0  0  0  0  6  0  0  0  0  0  0
    4.9391   -0.1938   -0.9316 O   0  0  0  0  0  0  0  0  0  0  0  0
    3.5964    1.4373   -2.2836 O   0  0  0  0  0  0  0  0  0  0  0  0
    3.8602    1.8920    0.2751 C   0  0  0  0  0  0  0  0  0  0  0  0
    3.6614    3.2379   -0.0157 C   0  0  0  0  0  0  0  0  0  0  0  0
    3.7977    4.1734    1.0095 C   0  0  0  0  0  0  0  0  0  0  0  0
    4.1360    3.7759    2.3079 C   0  0  0  0  0  0  0  0  0  0  0  0
    4.3312    4.7921    3.4002 C   0  0  0  0  0  0  0  0  0  0  0  0
    4.3220    2.4082    2.5695 C   0  0  0  0  0  0  0  0  0  0  0  0
    4.1924    1.4613    1.5609 C   0  0  0  0  0  0  0  0  0  0  0  0
    2.2972   -1.4742   -1.4461 C   0  0  0  0  0  0  0  0  0  0  0  0
   -1.4244   -2.8704    0.6902 C   0  0  0  0  0  0  0  0  0  0  0  0
   -0.8287   -4.0168    0.3225 O   0  0  0  0  0  0  0  0  0  0  0  0
   -0.8084   -5.0961    1.2358 C   0  0  0  0  0  0  0  0  0  0  0  0
   -2.0672   -2.6963    1.9144 C   0  0  0  0  0  0  0  0  0  0  0  0
   -4.7004    0.0851    3.1047 H   0  0  0  0  0  0  0  0  0  0  0  0
   -3.1540    0.6509    3.8217 H   0  0  0  0  0  0  0  0  0  0  0  0
   -4.2897   -0.3343    4.7964 H   0  0  0  0  0  0  0  0  0  0  0  0
   -3.1168    0.5478    1.5322 H   0  0  0  0  0  0  0  0  0  0  0  0
   -2.0047    2.1135    0.2609 H   0  0  0  0  0  0  0  0  0  0  0  0
   -2.2599    2.2468   -1.5085 H   0  0  0  0  0  0  0  0  0  0  0  0
   -3.5582    1.5753   -0.4691 H   0  0  0  0  0  0  0  0  0  0  0  0
   -3.2457   -2.6372   -2.0511 H   0  0  0  0  0  0  0  0  0  0  0  0
   -4.9000   -2.0261   -3.8161 H   0  0  0  0  0  0  0  0  0  0  0  0
   -1.8870    0.2808   -5.8535 H   0  0  0  0  0  0  0  0  0  0  0  0
   -0.2170   -0.3438   -4.0683 H   0  0  0  0  0  0  0  0  0  0  0  0
    0.4869    0.4180   -0.1088 H   0  0  0  0  0  0  0  0  0  0  0  0
    1.1335    1.2380   -1.5709 H   0  0  0  0  0  0  0  0  0  0  0  0
    3.4131    3.5414   -1.0333 H   0  0  0  0  0  0  0  0  0  0  0  0
    3.6454    5.2329    0.7935 H   0  0  0  0  0  0  0  0  0  0  0  0
    3.9454    4.4205    4.3591 H   0  0  0  0  0  0  0  0  0  0  0  0
    5.4039    5.0012    3.5354 H   0  0  0  0  0  0  0  0  0  0  0  0
    3.8318    5.7387    3.1570 H   0  0  0  0  0  0  0  0  0  0  0  0
    4.5825    2.0867    3.5801 H   0  0  0  0  0  0  0  0  0  0  0  0
    4.3519    0.4000    1.7598 H   0  0  0  0  0  0  0  0  0  0  0  0
    3.0239   -1.5562   -2.2731 H   0  0  0  0  0  0  0  0  0  0  0  0
    2.3887   -2.3722   -0.8134 H   0  0  0  0  0  0  0  0  0  0  0  0
   -0.2709   -4.8224    2.1563 H   0  0  0  0  0  0  0  0  0  0  0  0
   -0.2822   -5.9139    0.7332 H   0  0  0  0  0  0  0  0  0  0  0  0
   -1.8298   -5.4173    1.4898 H   0  0  0  0  0  0  0  0  0  0  0  0
   -2.1253   -3.4847    2.6614 H   0  0  0  0  0  0  0  0  0  0  0  0
  2  1  1  0
  3  2  1  0
  4  3  2  0
  5  4  1  0
  6  5  1  0
  7  6  1  0
  8  5  2  0
  9  8  1  0
 10  9  1  0
 11 10  2  0
 12 11  1  0
 13 12  2  0
 14 13  1  0
 15 13  1  0
 16 15  2  0
 16 10  1  0
  9 17  1  1
 18 17  1  0
 19 18  1  0
 20 19  1  0
 21 20  2  0
 22 20  2  0
 23 20  1  0
 24 23  2  0
 25 24  1  0
 26 25  2  0
 27 26  1  0
 28 26  1  0
 29 28  2  0
 29 23  1  0
 30 19  1  0
 30 17  1  0
 31  8  1  0
 32 31  1  0
 33 32  1  0
 34 31  2  0
 34  3  1  0
 35  1  1  0
 36  1  1  0
 37  1  1  0
 38  4  1  0
 39  7  1  0
 40  7  1  0
 41  7  1  0
 42 11  1  0
 43 12  1  0
 44 15  1  0
 45 16  1  0
 46 18  1  0
 47 18  1  0
 48 24  1  0
 49 25  1  0
 50 27  1  0
 51 27  1  0
 52 27  1  0
 53 28  1  0
 54 29  1  0
 55 30  1  0
 56 30  1  0
 57 33  1  0
 58 33  1  0
 59 33  1  0
 60 34  1  0
M  CHG  2   9   1  17  -1
M  END
