
     RDKit          3D

 44 46  0  0  0  0  0  0  0  0999 V2000
    5.4712   -0.0366   -0.1683 C   0  0  0  0  0  0  0  0  0  0  0  0
    4.4212   -0.4044    0.7088 O   0  0  0  0  0  0  0  0  0  0  0  0
    3.1559   -0.2987    0.2999 C   0  0  0  0  0  0  0  0  0  0  0  0
    2.8006    0.1626   -0.9756 C   0  0  0  0  0  0  0  0  0  0  0  0
    1.4472    0.2455   -1.3138 C   0  0  0  0  0  0  0  0  0  0  0  0
    1.0037    0.6759   -2.4965 O   0  0  0  0  0  0  0  0  0  0  0  0
    1.9359    1.0522   -3.4977 C   0  0  0  0  0  0  0  0  0  0  0  0
    0.4659   -0.1398   -0.3748 C   0  0  0  0  0  0  0  0  0  0  0  0
   -1.2078    0.0348   -0.8599 S   0  0  0  0  0  0  0  0  0  0  0  0
   -2.0317    1.0156    0.3898 C   0  0  0  0  0  0  0  0  0  0  0  0
   -2.7826    0.4539    1.4217 C   0  0  0  0  0  0  0  0  0  0  0  0
   -3.4498    1.2976    2.3053 C   0  0  0  0  0  0  0  0  0  0  0  0
   -3.3407    2.6797    2.1489 C   0  0  0  0  0  0  0  0  0  0  0  0
   -4.1756    3.7229    3.2519 Cl  0  0  0  0  0  0  0  0  0  0  0  0
   -2.5819    3.2397    1.1209 C   0  0  0  0  0  0  0  0  0  0  0  0
   -1.9306    2.3974    0.2245 C   0  0  0  0  0  0  0  0  0  0  0  0
   -1.9446   -1.6167   -0.7011 C   0  0  0  0  0  0  0  0  0  0  0  0
   -3.3815   -1.6434   -1.2493 C   0  0  0  0  0  0  0  0  0  0  0  0
   -2.9438   -2.2326   -2.4717 O   0  0  0  0  0  0  0  0  0  0  0  0
   -1.6342   -2.4587   -1.9500 C   0  0  0  0  0  0  0  0  0  0  0  0
    0.8435   -0.6100    0.9066 C   0  0  0  0  0  0  0  0  0  0  0  0
   -0.1569   -0.9555    1.7211 O   0  0  0  0  0  0  0  0  0  0  0  0
    0.1364   -1.3526    3.0524 C   0  0  0  0  0  0  0  0  0  0  0  0
    2.1867   -0.6861    1.2431 C   0  0  0  0  0  0  0  0  0  0  0  0
    5.4018    1.0278   -0.4378 H   0  0  0  0  0  0  0  0  0  0  0  0
    6.4023   -0.2156    0.3776 H   0  0  0  0  0  0  0  0  0  0  0  0
    5.4562   -0.6522   -1.0800 H   0  0  0  0  0  0  0  0  0  0  0  0
    3.5593    0.4554   -1.6950 H   0  0  0  0  0  0  0  0  0  0  0  0
    2.5844    0.2043   -3.7615 H   0  0  0  0  0  0  0  0  0  0  0  0
    1.3420    1.3458   -4.3685 H   0  0  0  0  0  0  0  0  0  0  0  0
    2.5479    1.9025   -3.1639 H   0  0  0  0  0  0  0  0  0  0  0  0
   -2.8585   -0.6256    1.5528 H   0  0  0  0  0  0  0  0  0  0  0  0
   -4.0507    0.8854    3.1159 H   0  0  0  0  0  0  0  0  0  0  0  0
   -2.5148    4.3224    1.0154 H   0  0  0  0  0  0  0  0  0  0  0  0
   -1.3519    2.8195   -0.6001 H   0  0  0  0  0  0  0  0  0  0  0  0
   -1.7241   -2.0265    0.2889 H   0  0  0  0  0  0  0  0  0  0  0  0
   -4.0319   -2.3090   -0.6610 H   0  0  0  0  0  0  0  0  0  0  0  0
   -3.8820   -0.6734   -1.3940 H   0  0  0  0  0  0  0  0  0  0  0  0
   -1.4519   -3.5150   -1.7023 H   0  0  0  0  0  0  0  0  0  0  0  0
   -0.8372   -2.0898   -2.6136 H   0  0  0  0  0  0  0  0  0  0  0  0
   -0.8300   -1.5356    3.5325 H   0  0  0  0  0  0  0  0  0  0  0  0
    0.7389   -2.2721    3.0606 H   0  0  0  0  0  0  0  0  0  0  0  0
    0.6695   -0.5511    3.5831 H   0  0  0  0  0  0  0  0  0  0  0  0
    2.5247   -1.0404    2.2144 H   0  0  0  0  0  0  0  0  0  0  0  0
  2  1  1  0
  3  2  1  0
  4  3  2  0
  5  4  1  0
  6  5  1  0
  7  6  1  0
  8  5  2  0
  9  8  1  0
 10  9  1  0
 11 10  2  0
 12 11  1  0
 13 12  2  0
 14 13  1  0
 15 13  1  0
 16 15  2  0
 16 10  1  0
  9 17  1  1
 18 17  1  0
 19 18  1  0
 20 19  1  0
 20 17  1  0
 21  8  1  0
 22 21  1  0
 23 22  1  0
 24 21  2  0
 24  3  1  0
 25  1  1  0
 26  1  1  0
 27  1  1  0
 28  4  1  0
 29  7  1  0
 30  7  1  0
 31  7  1  0
 32 11  1  0
 33 12  1  0
 34 15  1  0
 35 16  1  0
 36 17  1  0
 37 18  1  0
 38 18  1  0
 39 20  1  0
 40 20  1  0
 41 23  1  0
 42 23  1  0
 43 23  1  0
 44 24  1  0
M  CHG  1   9   1
M  END
