
     RDKit          3D

 35 36  0  0  0  0  0  0  0  0999 V2000
   -4.0272   -2.0551    1.5333 C   0  0  0  0  0  0  0  0  0  0  0  0
   -3.7183   -1.2072    0.4478 O   0  0  0  0  0  0  0  0  0  0  0  0
   -2.5600   -0.5220    0.4665 C   0  0  0  0  0  0  0  0  0  0  0  0
   -1.6439   -0.5941    1.5202 C   0  0  0  0  0  0  0  0  0  0  0  0
   -0.4677    0.1681    1.4456 C   0  0  0  0  0  0  0  0  0  0  0  0
    0.4690    0.1451    2.4064 O   0  0  0  0  0  0  0  0  0  0  0  0
    0.2629   -0.6491    3.5550 C   0  0  0  0  0  0  0  0  0  0  0  0
   -0.2104    0.9949    0.3362 C   0  0  0  0  0  0  0  0  0  0  0  0
    1.2393    1.9991    0.2871 S   0  0  0  0  0  0  0  0  0  0  0  0
    2.4178    0.9705   -0.5609 C   0  0  0  0  0  0  0  0  0  0  0  0
    2.1327   -0.3136   -1.0351 C   0  0  0  0  0  0  0  0  0  0  0  0
    3.1240   -1.0476   -1.6897 C   0  0  0  0  0  0  0  0  0  0  0  0
    4.3991   -0.5148   -1.8768 C   0  0  0  0  0  0  0  0  0  0  0  0
    4.6803    0.7688   -1.4030 C   0  0  0  0  0  0  0  0  0  0  0  0
    3.6990    1.5096   -0.7490 C   0  0  0  0  0  0  0  0  0  0  0  0
   -1.1477    1.0356   -0.7207 C   0  0  0  0  0  0  0  0  0  0  0  0
   -0.8384    1.8136   -1.7701 O   0  0  0  0  0  0  0  0  0  0  0  0
   -1.7539    1.9031   -2.8421 C   0  0  0  0  0  0  0  0  0  0  0  0
   -2.3191    0.2815   -0.6557 C   0  0  0  0  0  0  0  0  0  0  0  0
   -3.2720   -2.8485    1.6463 H   0  0  0  0  0  0  0  0  0  0  0  0
   -4.9993   -2.5070    1.3100 H   0  0  0  0  0  0  0  0  0  0  0  0
   -4.0971   -1.4861    2.4734 H   0  0  0  0  0  0  0  0  0  0  0  0
   -1.8371   -1.2259    2.3819 H   0  0  0  0  0  0  0  0  0  0  0  0
    1.1334   -0.4870    4.1989 H   0  0  0  0  0  0  0  0  0  0  0  0
   -0.6484   -0.3459    4.0932 H   0  0  0  0  0  0  0  0  0  0  0  0
    0.1947   -1.7166    3.2945 H   0  0  0  0  0  0  0  0  0  0  0  0
    1.1383   -0.7411   -0.8939 H   0  0  0  0  0  0  0  0  0  0  0  0
    2.8911   -2.0497   -2.0552 H   0  0  0  0  0  0  0  0  0  0  0  0
    5.1701   -1.0924   -2.3888 H   0  0  0  0  0  0  0  0  0  0  0  0
    5.6737    1.1995   -1.5424 H   0  0  0  0  0  0  0  0  0  0  0  0
    3.9237    2.5136   -0.3809 H   0  0  0  0  0  0  0  0  0  0  0  0
   -2.7259    2.2904   -2.4997 H   0  0  0  0  0  0  0  0  0  0  0  0
   -1.9011    0.9224   -3.3200 H   0  0  0  0  0  0  0  0  0  0  0  0
   -1.3176    2.6002   -3.5648 H   0  0  0  0  0  0  0  0  0  0  0  0
   -3.0641    0.2878   -1.4480 H   0  0  0  0  0  0  0  0  0  0  0  0
  2  1  1  0
  3  2  1  0
  4  3  2  0
  5  4  1  0
  6  5  1  0
  7  6  1  0
  8  5  2  0
  9  8  1  0
 10  9  1  0
 11 10  2  0
 12 11  1  0
 13 12  2  0
 14 13  1  0
 15 14  2  0
 15 10  1  0
 16  8  1  0
 17 16  1  0
 18 17  1  0
 19 16  2  0
 19  3  1  0
 20  1  1  0
 21  1  1  0
 22  1  1  0
 23  4  1  0
 24  7  1  0
 25  7  1  0
 26  7  1  0
 27 11  1  0
 28 12  1  0
 29 13  1  0
 30 14  1  0
 31 15  1  0
 32 18  1  0
 33 18  1  0
 34 18  1  0
 35 19  1  0
M  END
