
     RDKit          3D

 35 36  0  0  0  0  0  0  0  0999 V2000
   -4.1573    1.6907   -1.6910 C   0  0  0  0  0  0  0  0  0  0  0  0
   -3.7374    1.1533   -0.4556 O   0  0  0  0  0  0  0  0  0  0  0  0
   -2.5859    0.4577   -0.4062 C   0  0  0  0  0  0  0  0  0  0  0  0
   -2.2271   -0.0236    0.8600 C   0  0  0  0  0  0  0  0  0  0  0  0
   -1.0575   -0.7688    1.0022 C   0  0  0  0  0  0  0  0  0  0  0  0
   -0.6412   -1.2579    2.1805 O   0  0  0  0  0  0  0  0  0  0  0  0
   -1.4385   -1.0436    3.3255 C   0  0  0  0  0  0  0  0  0  0  0  0
   -0.2376   -1.0386   -0.1178 C   0  0  0  0  0  0  0  0  0  0  0  0
    1.1895   -2.0687    0.0603 S   0  0  0  0  0  0  0  0  0  0  0  0
    2.4273   -0.9106    0.6090 C   0  0  0  0  0  0  0  0  0  0  0  0
    2.5351    0.3737    0.0636 C   0  0  0  0  0  0  0  0  0  0  0  0
    3.5487    1.2319    0.4822 C   0  0  0  0  0  0  0  0  0  0  0  0
    4.4668    0.7911    1.4353 C   0  0  0  0  0  0  0  0  0  0  0  0
    5.7451    1.8592    1.9496 Cl  0  0  0  0  0  0  0  0  0  0  0  0
    4.3775   -0.4858    1.9839 C   0  0  0  0  0  0  0  0  0  0  0  0
    3.3509   -1.3337    1.5698 C   0  0  0  0  0  0  0  0  0  0  0  0
   -0.6075   -0.5247   -1.3730 C   0  0  0  0  0  0  0  0  0  0  0  0
    0.2272   -0.7721   -2.3973 O   0  0  0  0  0  0  0  0  0  0  0  0
   -0.0816   -0.2649   -3.6780 C   0  0  0  0  0  0  0  0  0  0  0  0
   -1.7846    0.2240   -1.5275 C   0  0  0  0  0  0  0  0  0  0  0  0
   -3.4243    2.4141   -2.0806 H   0  0  0  0  0  0  0  0  0  0  0  0
   -4.3155    0.8978   -2.4387 H   0  0  0  0  0  0  0  0  0  0  0  0
   -5.1066    2.2022   -1.5012 H   0  0  0  0  0  0  0  0  0  0  0  0
   -2.8830    0.2025    1.6975 H   0  0  0  0  0  0  0  0  0  0  0  0
   -0.9251   -1.5397    4.1556 H   0  0  0  0  0  0  0  0  0  0  0  0
   -1.5387    0.0305    3.5448 H   0  0  0  0  0  0  0  0  0  0  0  0
   -2.4400   -1.4828    3.1986 H   0  0  0  0  0  0  0  0  0  0  0  0
    1.8273    0.6989   -0.7015 H   0  0  0  0  0  0  0  0  0  0  0  0
    3.6351    2.2365    0.0668 H   0  0  0  0  0  0  0  0  0  0  0  0
    5.0947   -0.8087    2.7389 H   0  0  0  0  0  0  0  0  0  0  0  0
    3.2656   -2.3326    2.0019 H   0  0  0  0  0  0  0  0  0  0  0  0
    0.7351   -0.5777   -4.3367 H   0  0  0  0  0  0  0  0  0  0  0  0
   -1.0314   -0.6764   -4.0528 H   0  0  0  0  0  0  0  0  0  0  0  0
   -0.1397    0.8343   -3.6669 H   0  0  0  0  0  0  0  0  0  0  0  0
   -2.0652    0.6127   -2.5018 H   0  0  0  0  0  0  0  0  0  0  0  0
  2  1  1  0
  3  2  1  0
  4  3  2  0
  5  4  1  0
  6  5  1  0
  7  6  1  0
  8  5  2  0
  9  8  1  0
 10  9  1  0
 11 10  2  0
 12 11  1  0
 13 12  2  0
 14 13  1  0
 15 13  1  0
 16 15  2  0
 16 10  1  0
 17  8  1  0
 18 17  1  0
 19 18  1  0
 20 17  2  0
 20  3  1  0
 21  1  1  0
 22  1  1  0
 23  1  1  0
 24  4  1  0
 25  7  1  0
 26  7  1  0
 27  7  1  0
 28 11  1  0
 29 12  1  0
 30 15  1  0
 31 16  1  0
 32 19  1  0
 33 19  1  0
 34 19  1  0
 35 20  1  0
M  END
