
     RDKit          3D

 45 47  0  0  0  0  0  0  0  0999 V2000
    5.1030    0.2397   -0.3627 C   0  0  0  0  0  0  0  0  0  0  0  0
    4.1824    0.1855   -1.4315 O   0  0  0  0  0  0  0  0  0  0  0  0
    2.8688    0.0871   -1.1587 C   0  0  0  0  0  0  0  0  0  0  0  0
    2.3619    0.0120    0.1431 C   0  0  0  0  0  0  0  0  0  0  0  0
    0.9739   -0.0794    0.3198 C   0  0  0  0  0  0  0  0  0  0  0  0
    0.3961   -0.1694    1.5280 O   0  0  0  0  0  0  0  0  0  0  0  0
    1.1790    0.0153    2.6865 C   0  0  0  0  0  0  0  0  0  0  0  0
    0.1076   -0.0976   -0.7842 C   0  0  0  0  0  0  0  0  0  0  0  0
   -1.6832    0.0389   -0.5755 S   0  0  0  0  0  0  0  0  0  0  0  0
   -1.9737   -1.3919    0.4883 C   0  0  0  0  0  0  0  0  0  0  0  0
   -1.4649   -2.6299    0.0961 C   0  0  0  0  0  0  0  0  0  0  0  0
   -1.7465   -3.7564    0.8674 C   0  0  0  0  0  0  0  0  0  0  0  0
   -2.5307   -3.6407    2.0176 C   0  0  0  0  0  0  0  0  0  0  0  0
   -3.0363   -2.3955    2.3929 C   0  0  0  0  0  0  0  0  0  0  0  0
   -2.7655   -1.2623    1.6237 C   0  0  0  0  0  0  0  0  0  0  0  0
   -2.1776    1.4393    0.2254 C   0  0  0  0  0  0  0  0  0  0  0  0
   -1.3615    2.2393    1.2317 C   0  0  0  0  0  0  0  0  0  0  0  0
   -2.1045    3.4859    0.6985 C   0  0  0  0  0  0  0  0  0  0  0  0
   -2.4648    2.7045   -0.5888 C   0  0  0  0  0  0  0  0  0  0  0  0
    0.6422   -0.0222   -2.0858 C   0  0  0  0  0  0  0  0  0  0  0  0
   -0.2443   -0.0387   -3.0968 O   0  0  0  0  0  0  0  0  0  0  0  0
    0.2361    0.0429   -4.4229 C   0  0  0  0  0  0  0  0  0  0  0  0
    2.0209    0.0635   -2.2758 C   0  0  0  0  0  0  0  0  0  0  0  0
    6.0953    0.3478   -0.8129 H   0  0  0  0  0  0  0  0  0  0  0  0
    4.9019    1.1037    0.2892 H   0  0  0  0  0  0  0  0  0  0  0  0
    5.0728   -0.6826    0.2383 H   0  0  0  0  0  0  0  0  0  0  0  0
    3.0247    0.0218    1.0036 H   0  0  0  0  0  0  0  0  0  0  0  0
    0.4878   -0.0219    3.5353 H   0  0  0  0  0  0  0  0  0  0  0  0
    1.6843    0.9939    2.6662 H   0  0  0  0  0  0  0  0  0  0  0  0
    1.9302   -0.7820    2.7947 H   0  0  0  0  0  0  0  0  0  0  0  0
   -0.8497   -2.7101   -0.8035 H   0  0  0  0  0  0  0  0  0  0  0  0
   -1.3558   -4.7291    0.5639 H   0  0  0  0  0  0  0  0  0  0  0  0
   -2.7528   -4.5236    2.6191 H   0  0  0  0  0  0  0  0  0  0  0  0
   -3.6492   -2.3046    3.2915 H   0  0  0  0  0  0  0  0  0  0  0  0
   -3.1530   -0.2764    1.8871 H   0  0  0  0  0  0  0  0  0  0  0  0
   -0.2809    2.2917    0.9846 H   0  0  0  0  0  0  0  0  0  0  0  0
   -1.4525    2.0056    2.3060 H   0  0  0  0  0  0  0  0  0  0  0  0
   -1.5171    4.4070    0.5785 H   0  0  0  0  0  0  0  0  0  0  0  0
   -3.0007    3.7040    1.2952 H   0  0  0  0  0  0  0  0  0  0  0  0
   -3.4768    2.8520   -1.0001 H   0  0  0  0  0  0  0  0  0  0  0  0
   -1.7304    2.9176   -1.3899 H   0  0  0  0  0  0  0  0  0  0  0  0
    0.8812   -0.8156   -4.6644 H   0  0  0  0  0  0  0  0  0  0  0  0
    0.7965    0.9764   -4.5839 H   0  0  0  0  0  0  0  0  0  0  0  0
   -0.6462    0.0311   -5.0708 H   0  0  0  0  0  0  0  0  0  0  0  0
    2.4722    0.1233   -3.2639 H   0  0  0  0  0  0  0  0  0  0  0  0
  2  1  1  0
  3  2  1  0
  4  3  2  0
  5  4  1  0
  6  5  1  0
  7  6  1  0
  8  5  2  0
  9  8  1  0
 10  9  1  0
 11 10  2  0
 12 11  1  0
 13 12  2  0
 14 13  1  0
 15 14  2  0
 15 10  1  0
  9 16  1  1
 17 16  1  0
 18 17  1  0
 19 18  1  0
 19 16  1  0
 20  8  1  0
 21 20  1  0
 22 21  1  0
 23 20  2  0
 23  3  1  0
 24  1  1  0
 25  1  1  0
 26  1  1  0
 27  4  1  0
 28  7  1  0
 29  7  1  0
 30  7  1  0
 31 11  1  0
 32 12  1  0
 33 13  1  0
 34 14  1  0
 35 15  1  0
 36 17  1  0
 37 17  1  0
 38 18  1  0
 39 18  1  0
 40 19  1  0
 41 19  1  0
 42 22  1  0
 43 22  1  0
 44 22  1  0
 45 23  1  0
M  CHG  2   9   1  16  -1
M  END
