
     RDKit          3D

 43 45  0  0  0  0  0  0  0  0999 V2000
    3.0345    0.1798   -3.9780 C   0  0  0  0  0  0  0  0  0  0  0  0
    3.4143   -0.0211   -2.6323 O   0  0  0  0  0  0  0  0  0  0  0  0
    2.4652   -0.0118   -1.6808 C   0  0  0  0  0  0  0  0  0  0  0  0
    2.9238   -0.2102   -0.3700 C   0  0  0  0  0  0  0  0  0  0  0  0
    2.0086   -0.2110    0.6809 C   0  0  0  0  0  0  0  0  0  0  0  0
    2.3575   -0.3792    1.9678 O   0  0  0  0  0  0  0  0  0  0  0  0
    3.7248   -0.5443    2.2860 C   0  0  0  0  0  0  0  0  0  0  0  0
    0.6352   -0.0296    0.4222 C   0  0  0  0  0  0  0  0  0  0  0  0
   -0.4840    0.1338    1.8227 S   0  0  0  0  0  0  0  0  0  0  0  0
   -1.7776   -1.0218    1.3129 C   0  0  0  0  0  0  0  0  0  0  0  0
   -1.4137   -2.3018    0.8976 C   0  0  0  0  0  0  0  0  0  0  0  0
   -2.4033   -3.2170    0.5476 C   0  0  0  0  0  0  0  0  0  0  0  0
   -3.7422   -2.8323    0.6248 C   0  0  0  0  0  0  0  0  0  0  0  0
   -4.9820   -3.9699    0.1766 Cl  0  0  0  0  0  0  0  0  0  0  0  0
   -4.1072   -1.5579    1.0537 C   0  0  0  0  0  0  0  0  0  0  0  0
   -3.1121   -0.6466    1.4062 C   0  0  0  0  0  0  0  0  0  0  0  0
   -1.1580    1.6615    1.9848 C   0  0  0  0  0  0  0  0  0  0  0  0
   -1.2160    2.7263    0.9001 C   0  0  0  0  0  0  0  0  0  0  0  0
   -0.6814    3.7017    1.8072 O   0  0  0  0  0  0  0  0  0  0  0  0
   -0.4455    2.7193    2.8264 C   0  0  0  0  0  0  0  0  0  0  0  0
    0.1962    0.1809   -0.8945 C   0  0  0  0  0  0  0  0  0  0  0  0
   -1.1236    0.3652   -1.0558 O   0  0  0  0  0  0  0  0  0  0  0  0
   -1.6356    0.6295   -2.3453 C   0  0  0  0  0  0  0  0  0  0  0  0
    1.1073    0.1843   -1.9588 C   0  0  0  0  0  0  0  0  0  0  0  0
    2.5555    1.1620   -4.1120 H   0  0  0  0  0  0  0  0  0  0  0  0
    3.9547    0.1422   -4.5700 H   0  0  0  0  0  0  0  0  0  0  0  0
    2.3476   -0.6099   -4.3192 H   0  0  0  0  0  0  0  0  0  0  0  0
    3.9909   -0.3541   -0.2161 H   0  0  0  0  0  0  0  0  0  0  0  0
    4.3116    0.3335    1.9757 H   0  0  0  0  0  0  0  0  0  0  0  0
    4.1356   -1.4468    1.8083 H   0  0  0  0  0  0  0  0  0  0  0  0
    3.7770   -0.6519    3.3741 H   0  0  0  0  0  0  0  0  0  0  0  0
   -0.3608   -2.5866    0.8359 H   0  0  0  0  0  0  0  0  0  0  0  0
   -2.1421   -4.2231    0.2187 H   0  0  0  0  0  0  0  0  0  0  0  0
   -5.1610   -1.2819    1.1048 H   0  0  0  0  0  0  0  0  0  0  0  0
   -3.3546    0.3633    1.7438 H   0  0  0  0  0  0  0  0  0  0  0  0
   -2.2101    3.0258    0.5202 H   0  0  0  0  0  0  0  0  0  0  0  0
   -0.5454    2.5764    0.0300 H   0  0  0  0  0  0  0  0  0  0  0  0
    0.6360    2.5718    3.0145 H   0  0  0  0  0  0  0  0  0  0  0  0
   -0.9247    3.0110    3.7786 H   0  0  0  0  0  0  0  0  0  0  0  0
   -1.2170    1.5641   -2.7497 H   0  0  0  0  0  0  0  0  0  0  0  0
   -1.4200   -0.2006   -3.0349 H   0  0  0  0  0  0  0  0  0  0  0  0
   -2.7194    0.7339   -2.2290 H   0  0  0  0  0  0  0  0  0  0  0  0
    0.7613    0.3429   -2.9761 H   0  0  0  0  0  0  0  0  0  0  0  0
  2  1  1  0
  3  2  1  0
  4  3  2  0
  5  4  1  0
  6  5  1  0
  7  6  1  0
  8  5  2  0
  9  8  1  0
 10  9  1  0
 11 10  2  0
 12 11  1  0
 13 12  2  0
 14 13  1  0
 15 13  1  0
 16 15  2  0
 16 10  1  0
  9 17  1  6
 18 17  1  0
 19 18  1  0
 20 19  1  0
 20 17  1  0
 21  8  1  0
 22 21  1  0
 23 22  1  0
 24 21  2  0
 24  3  1  0
 25  1  1  0
 26  1  1  0
 27  1  1  0
 28  4  1  0
 29  7  1  0
 30  7  1  0
 31  7  1  0
 32 11  1  0
 33 12  1  0
 34 15  1  0
 35 16  1  0
 36 18  1  0
 37 18  1  0
 38 20  1  0
 39 20  1  0
 40 23  1  0
 41 23  1  0
 42 23  1  0
 43 24  1  0
M  CHG  2   9   1  17  -1
M  END
