
     RDKit          3D

 46 48  0  0  0  0  0  0  0  0999 V2000
    5.1339   -0.1417   -0.9050 C   0  0  0  0  0  0  0  0  0  0  0  0
    4.5160   -0.3553    0.3520 O   0  0  0  0  0  0  0  0  0  0  0  0
    3.1918   -0.2437    0.4638 C   0  0  0  0  0  0  0  0  0  0  0  0
    2.3569    0.0607   -0.6223 C   0  0  0  0  0  0  0  0  0  0  0  0
    0.9822    0.1531   -0.4032 C   0  0  0  0  0  0  0  0  0  0  0  0
    0.0960    0.4354   -1.3599 O   0  0  0  0  0  0  0  0  0  0  0  0
    0.5481    0.7087   -2.6767 C   0  0  0  0  0  0  0  0  0  0  0  0
    0.4494   -0.0433    0.8875 C   0  0  0  0  0  0  0  0  0  0  0  0
   -1.2562    0.0762    1.2450 S   0  0  0  0  0  0  0  0  0  0  0  0
   -2.0891   -1.1491    0.2322 C   0  0  0  0  0  0  0  0  0  0  0  0
   -1.3862   -2.1621   -0.4133 C   0  0  0  0  0  0  0  0  0  0  0  0
   -2.1055   -3.1214   -1.1275 C   0  0  0  0  0  0  0  0  0  0  0  0
   -3.4976   -3.0625   -1.1866 C   0  0  0  0  0  0  0  0  0  0  0  0
   -4.1847   -2.0432   -0.5252 C   0  0  0  0  0  0  0  0  0  0  0  0
   -3.4833   -1.0813    0.1987 C   0  0  0  0  0  0  0  0  0  0  0  0
   -1.9145    1.6851    0.5810 C   0  0  0  0  0  0  0  0  0  0  0  0
   -2.4838    1.7787   -0.8441 C   0  0  0  0  0  0  0  0  0  0  0  0
   -1.6761    3.0880   -1.0245 C   0  0  0  0  0  0  0  0  0  0  0  0
   -0.9163    2.8214    0.2962 C   0  0  0  0  0  0  0  0  0  0  0  0
    1.3094   -0.3458    1.9743 C   0  0  0  0  0  0  0  0  0  0  0  0
    0.7311   -0.5131    3.1641 O   0  0  0  0  0  0  0  0  0  0  0  0
    1.5434   -0.8106    4.2879 C   0  0  0  0  0  0  0  0  0  0  0  0
    2.6773   -0.4516    1.7542 C   0  0  0  0  0  0  0  0  0  0  0  0
    6.2070   -0.2849   -0.7470 H   0  0  0  0  0  0  0  0  0  0  0  0
    4.9475    0.8814   -1.2639 H   0  0  0  0  0  0  0  0  0  0  0  0
    4.7711   -0.8667   -1.6483 H   0  0  0  0  0  0  0  0  0  0  0  0
    2.7651    0.2224   -1.6156 H   0  0  0  0  0  0  0  0  0  0  0  0
   -0.3481    0.9395   -3.2620 H   0  0  0  0  0  0  0  0  0  0  0  0
    1.0557   -0.1675   -3.1044 H   0  0  0  0  0  0  0  0  0  0  0  0
    1.2251    1.5758   -2.6789 H   0  0  0  0  0  0  0  0  0  0  0  0
   -0.2977   -2.2143   -0.3611 H   0  0  0  0  0  0  0  0  0  0  0  0
   -1.5677   -3.9206   -1.6394 H   0  0  0  0  0  0  0  0  0  0  0  0
   -4.0507   -3.8183   -1.7460 H   0  0  0  0  0  0  0  0  0  0  0  0
   -5.2738   -1.9967   -0.5644 H   0  0  0  0  0  0  0  0  0  0  0  0
   -4.0215   -0.2893    0.7250 H   0  0  0  0  0  0  0  0  0  0  0  0
   -2.6456    1.9478    1.3561 H   0  0  0  0  0  0  0  0  0  0  0  0
   -2.1574    0.9671   -1.5029 H   0  0  0  0  0  0  0  0  0  0  0  0
   -3.5769    1.8629   -0.8838 H   0  0  0  0  0  0  0  0  0  0  0  0
   -1.0502    3.1325   -1.9247 H   0  0  0  0  0  0  0  0  0  0  0  0
   -2.3044    3.9860   -0.9825 H   0  0  0  0  0  0  0  0  0  0  0  0
   -0.9206    3.6219    1.0453 H   0  0  0  0  0  0  0  0  0  0  0  0
    0.1163    2.4847    0.1445 H   0  0  0  0  0  0  0  0  0  0  0  0
    2.2839   -0.0153    4.4560 H   0  0  0  0  0  0  0  0  0  0  0  0
    0.8667   -0.8724    5.1454 H   0  0  0  0  0  0  0  0  0  0  0  0
    2.0570   -1.7733    4.1506 H   0  0  0  0  0  0  0  0  0  0  0  0
    3.3767   -0.6855    2.5535 H   0  0  0  0  0  0  0  0  0  0  0  0
  2  1  1  0
  3  2  1  0
  4  3  2  0
  5  4  1  0
  6  5  1  0
  7  6  1  0
  8  5  2  0
  9  8  1  0
 10  9  1  0
 11 10  2  0
 12 11  1  0
 13 12  2  0
 14 13  1  0
 15 14  2  0
 15 10  1  0
  9 16  1  6
 17 16  1  0
 18 17  1  0
 19 18  1  0
 19 16  1  0
 20  8  1  0
 21 20  1  0
 22 21  1  0
 23 20  2  0
 23  3  1  0
 24  1  1  0
 25  1  1  0
 26  1  1  0
 27  4  1  0
 28  7  1  0
 29  7  1  0
 30  7  1  0
 31 11  1  0
 32 12  1  0
 33 13  1  0
 34 14  1  0
 35 15  1  0
 36 16  1  0
 37 17  1  0
 38 17  1  0
 39 18  1  0
 40 18  1  0
 41 19  1  0
 42 19  1  0
 43 22  1  0
 44 22  1  0
 45 22  1  0
 46 23  1  0
M  CHG  1   9   1
M  END
