
     RDKit          3D

 10 10  0  0  0  0  0  0  0  0999 V2000
   -0.0080   -1.2690   -0.6460 C   0  0  0  0  0  2  0  0  0  0  0  0
    1.0435   -0.2590   -0.2271 C   0  0  0  0  0  0  0  0  0  0  0  0
    0.0047    0.7229    0.3693 C   0  0  0  0  0  0  0  0  0  0  0  0
   -1.0473   -0.3252   -0.0710 C   0  0  0  0  0  0  0  0  0  0  0  0
    1.6399    0.0851   -1.0951 H   0  0  0  0  0  0  0  0  0  0  0  0
    1.7840   -0.7100    0.4626 H   0  0  0  0  0  0  0  0  0  0  0  0
    0.0803    0.8941    1.4549 H   0  0  0  0  0  0  0  0  0  0  0  0
   -0.0635    1.7036   -0.1279 H   0  0  0  0  0  0  0  0  0  0  0  0
   -1.7871   -0.0237   -0.8386 H   0  0  0  0  0  0  0  0  0  0  0  0
   -1.6466   -0.8190    0.7192 H   0  0  0  0  0  0  0  0  0  0  0  0
  2  1  1  0
  3  2  1  0
  4  3  1  0
  4  1  1  0
  5  2  1  0
  6  2  1  0
  7  3  1  0
  8  3  1  0
  9  4  1  0
 10  4  1  0
M  RAD  1   1   3
M  END
