
     RDKit          3D

 25 26  0  0  0  0  0  0  0  0999 V2000
    3.4124    1.0474    1.5597 C   0  0  0  0  0  0  0  0  0  0  0  0
    2.2179    0.3704    0.9393 C   0  0  0  0  0  0  0  0  0  0  0  0
    2.0525    0.3403   -0.4555 C   0  0  0  0  0  0  0  0  0  0  0  0
    0.9678   -0.3121   -1.0410 C   0  0  0  0  0  0  0  0  0  0  0  0
    0.0259   -0.9385   -0.2181 C   0  0  0  0  0  0  0  0  0  0  0  0
   -1.4161   -1.7058   -0.9496 S   0  0  0  0  0  0  0  0  0  0  0  0
   -1.9534   -2.6621    0.0165 O   0  0  0  0  0  0  0  0  0  0  0  0
   -1.0897   -2.0469   -2.3324 O   0  0  0  0  0  0  0  0  0  0  0  0
   -2.5541   -0.4671   -1.0455 N   0  0  0  0  0  0  0  0  0  0  0  0
   -3.0414    0.3185    0.1014 C   0  0  0  0  0  0  0  0  0  0  0  0
   -3.1101    1.5815   -0.7185 C   0  0  0  0  0  2  0  0  0  0  0  0
   -2.3580    0.8025   -1.7668 C   0  0  0  0  0  0  0  0  0  0  0  0
    0.1706   -0.9340    1.1724 C   0  0  0  0  0  0  0  0  0  0  0  0
    1.2631   -0.2782    1.7395 C   0  0  0  0  0  0  0  0  0  0  0  0
    3.1900    1.4103    2.5745 H   0  0  0  0  0  0  0  0  0  0  0  0
    3.7544    1.9001    0.9537 H   0  0  0  0  0  0  0  0  0  0  0  0
    4.2597    0.3440    1.6418 H   0  0  0  0  0  0  0  0  0  0  0  0
    2.7923    0.8299   -1.0950 H   0  0  0  0  0  0  0  0  0  0  0  0
    0.8561   -0.3625   -2.1258 H   0  0  0  0  0  0  0  0  0  0  0  0
   -3.9600   -0.0379    0.5990 H   0  0  0  0  0  0  0  0  0  0  0  0
   -2.2819    0.5022    0.8966 H   0  0  0  0  0  0  0  0  0  0  0  0
   -1.3130    1.1905   -1.7507 H   0  0  0  0  0  0  0  0  0  0  0  0
   -2.7090    0.8459   -2.8124 H   0  0  0  0  0  0  0  0  0  0  0  0
   -0.5575   -1.4622    1.7909 H   0  0  0  0  0  0  0  0  0  0  0  0
    1.3818   -0.2760    2.8265 H   0  0  0  0  0  0  0  0  0  0  0  0
  2  1  1  0
  3  2  1  0
  4  3  1  0
  5  4  1  0
  6  5  1  0
  7  6  1  0
  8  6  1  0
  9  6  1  0
 10  9  1  0
 11 10  1  0
 12 11  1  0
 12  9  1  0
 13  5  1  0
 14 13  1  0
 14  2  1  0
 15  1  1  0
 16  1  1  0
 17  1  1  0
 18  3  1  0
 19  4  1  0
 20 10  1  0
 21 10  1  0
 22 12  1  0
 23 12  1  0
 24 13  1  0
 25 14  1  0
M  CHG  8   2  -1   3   1   4  -1   5   1   6   2   7  -1   8  -1  13   1
M  CHG  1  14  -1
M  RAD  1  11   3
M  END
