
     RDKit          3D

 35 36  0  0  0  0  0  0  0  0999 V2000
   -4.2019    1.8119   -1.1206 C   0  0  0  0  0  0  0  0  0  0  0  0
   -3.8828    0.9473   -0.0550 O   0  0  0  0  0  0  0  0  0  0  0  0
   -2.6900    0.3043   -0.0549 C   0  0  0  0  0  0  0  0  0  0  0  0
   -2.4590   -0.5348    1.0430 C   0  0  0  0  0  0  0  0  0  0  0  0
   -1.2546   -1.2390    1.1340 C   0  0  0  0  0  0  0  0  0  0  0  0
   -0.9592   -2.0638    2.1598 O   0  0  0  0  0  0  0  0  0  0  0  0
   -1.8920   -2.2352    3.2024 C   0  0  0  0  0  0  0  0  0  0  0  0
   -0.2709   -1.1143    0.1256 C   0  0  0  0  0  0  0  0  0  0  0  0
    1.2209   -2.0666    0.2138 S   0  0  0  0  0  0  0  0  0  0  0  0
    2.4910   -0.8231    0.2940 C   0  0  0  0  0  0  0  0  0  0  0  0
    3.8009   -1.2282   -0.0086 C   0  0  0  0  0  0  0  0  0  0  0  0
    4.8602   -0.3241    0.0587 C   0  0  0  0  0  0  0  0  0  0  0  0
    4.6110    1.0025    0.4186 C   0  0  0  0  0  0  0  0  0  0  0  0
    5.9338    2.1474    0.4878 Cl  0  0  0  0  0  0  0  0  0  0  0  0
    3.3130    1.4215    0.7198 C   0  0  0  0  0  0  0  0  0  0  0  0
    2.2594    0.5093    0.6627 C   0  0  0  0  0  0  0  0  0  0  0  0
   -0.5339   -0.2761   -0.9763 C   0  0  0  0  0  0  0  0  0  0  0  0
    0.4417   -0.1980   -1.9041 O   0  0  0  0  0  0  0  0  0  0  0  0
    0.3011    0.6706   -3.0035 C   0  0  0  0  0  0  0  0  0  0  0  0
   -1.7332    0.4489   -1.0676 C   0  0  0  0  0  0  0  0  0  0  0  0
   -3.4889    2.6532   -1.1945 H   0  0  0  0  0  0  0  0  0  0  0  0
   -4.2254    1.2798   -2.0889 H   0  0  0  0  0  0  0  0  0  0  0  0
   -5.2031    2.2121   -0.9106 H   0  0  0  0  0  0  0  0  0  0  0  0
   -3.2380   -0.6091    1.7986 H   0  0  0  0  0  0  0  0  0  0  0  0
   -1.4362   -2.9378    3.9129 H   0  0  0  0  0  0  0  0  0  0  0  0
   -2.1050   -1.2842    3.7228 H   0  0  0  0  0  0  0  0  0  0  0  0
   -2.8431   -2.6605    2.8347 H   0  0  0  0  0  0  0  0  0  0  0  0
    3.9933   -2.2615   -0.3091 H   0  0  0  0  0  0  0  0  0  0  0  0
    5.8774   -0.6415   -0.1777 H   0  0  0  0  0  0  0  0  0  0  0  0
    3.1312    2.4597    1.0042 H   0  0  0  0  0  0  0  0  0  0  0  0
    1.2479    0.8381    0.9074 H   0  0  0  0  0  0  0  0  0  0  0  0
    1.2203    0.5709   -3.5958 H   0  0  0  0  0  0  0  0  0  0  0  0
   -0.5643    0.3985   -3.6345 H   0  0  0  0  0  0  0  0  0  0  0  0
    0.1938    1.7222   -2.6821 H   0  0  0  0  0  0  0  0  0  0  0  0
   -1.9154    1.0999   -1.9172 H   0  0  0  0  0  0  0  0  0  0  0  0
  2  1  1  0
  3  2  1  0
  4  3  2  0
  5  4  1  0
  6  5  1  0
  7  6  1  0
  8  5  2  0
  9  8  1  0
 10  9  1  0
 11 10  2  0
 12 11  1  0
 13 12  2  0
 14 13  1  0
 15 13  1  0
 16 15  2  0
 16 10  1  0
 17  8  1  0
 18 17  1  0
 19 18  1  0
 20 17  2  0
 20  3  1  0
 21  1  1  0
 22  1  1  0
 23  1  1  0
 24  4  1  0
 25  7  1  0
 26  7  1  0
 27  7  1  0
 28 11  1  0
 29 12  1  0
 30 15  1  0
 31 16  1  0
 32 19  1  0
 33 19  1  0
 34 19  1  0
 35 20  1  0
M  END
