
     RDKit          3D

 35 36  0  0  0  0  0  0  0  0999 V2000
   -4.2033   -1.9875    1.4476 C   0  0  0  0  0  0  0  0  0  0  0  0
   -3.7120   -1.2225    0.3715 O   0  0  0  0  0  0  0  0  0  0  0  0
   -2.5313   -0.5703    0.5038 C   0  0  0  0  0  0  0  0  0  0  0  0
   -1.7493   -0.6156    1.6636 C   0  0  0  0  0  0  0  0  0  0  0  0
   -0.5347    0.0935    1.6972 C   0  0  0  0  0  0  0  0  0  0  0  0
    0.2802    0.0895    2.7737 O   0  0  0  0  0  0  0  0  0  0  0  0
   -0.0696   -0.6564    3.9151 C   0  0  0  0  0  0  0  0  0  0  0  0
   -0.1081    0.8491    0.5890 C   0  0  0  0  0  0  0  0  0  0  0  0
    1.3935    1.7855    0.6657 S   0  0  0  0  0  0  0  0  0  0  0  0
    2.4378    0.9685   -0.5241 C   0  0  0  0  0  0  0  0  0  0  0  0
    2.1704   -0.2994   -1.0590 C   0  0  0  0  0  0  0  0  0  0  0  0
    3.0571   -0.8724   -1.9734 C   0  0  0  0  0  0  0  0  0  0  0  0
    4.2208   -0.2003   -2.3581 C   0  0  0  0  0  0  0  0  0  0  0  0
    4.4902    1.0618   -1.8188 C   0  0  0  0  0  0  0  0  0  0  0  0
    3.6050    1.6469   -0.9129 C   0  0  0  0  0  0  0  0  0  0  0  0
   -0.9256    0.8839   -0.5663 C   0  0  0  0  0  0  0  0  0  0  0  0
   -0.4551    1.6136   -1.5963 O   0  0  0  0  0  0  0  0  0  0  0  0
   -1.1549    1.6245   -2.8191 C   0  0  0  0  0  0  0  0  0  0  0  0
   -2.1247    0.1697   -0.6158 C   0  0  0  0  0  0  0  0  0  0  0  0
   -3.5181   -2.8138    1.7116 H   0  0  0  0  0  0  0  0  0  0  0  0
   -5.1618   -2.4117    1.1191 H   0  0  0  0  0  0  0  0  0  0  0  0
   -4.3752   -1.3683    2.3468 H   0  0  0  0  0  0  0  0  0  0  0  0
   -2.0711   -1.1910    2.5260 H   0  0  0  0  0  0  0  0  0  0  0  0
    0.7427   -0.5120    4.6401 H   0  0  0  0  0  0  0  0  0  0  0  0
   -1.0160   -0.3035    4.3637 H   0  0  0  0  0  0  0  0  0  0  0  0
   -0.1616   -1.7349    3.6911 H   0  0  0  0  0  0  0  0  0  0  0  0
    1.2708   -0.8381   -0.7569 H   0  0  0  0  0  0  0  0  0  0  0  0
    2.8354   -1.8610   -2.3856 H   0  0  0  0  0  0  0  0  0  0  0  0
    4.9113   -0.6550   -3.0726 H   0  0  0  0  0  0  0  0  0  0  0  0
    5.3952    1.6018   -2.1108 H   0  0  0  0  0  0  0  0  0  0  0  0
    3.8132    2.6402   -0.5059 H   0  0  0  0  0  0  0  0  0  0  0  0
   -2.1659    2.0564   -2.7096 H   0  0  0  0  0  0  0  0  0  0  0  0
   -1.2446    0.6093   -3.2451 H   0  0  0  0  0  0  0  0  0  0  0  0
   -0.5696    2.2513   -3.5048 H   0  0  0  0  0  0  0  0  0  0  0  0
   -2.7713    0.1681   -1.4907 H   0  0  0  0  0  0  0  0  0  0  0  0
  2  1  1  0
  3  2  1  0
  4  3  2  0
  5  4  1  0
  6  5  1  0
  7  6  1  0
  8  5  2  0
  9  8  1  0
 10  9  1  0
 11 10  2  0
 12 11  1  0
 13 12  2  0
 14 13  1  0
 15 14  2  0
 15 10  1  0
 16  8  1  0
 17 16  1  0
 18 17  1  0
 19 16  2  0
 19  3  1  0
 20  1  1  0
 21  1  1  0
 22  1  1  0
 23  4  1  0
 24  7  1  0
 25  7  1  0
 26  7  1  0
 27 11  1  0
 28 12  1  0
 29 13  1  0
 30 14  1  0
 31 15  1  0
 32 18  1  0
 33 18  1  0
 34 18  1  0
 35 19  1  0
M  END
