
     RDKit          3D

 43 45  0  0  0  0  0  0  0  0999 V2000
    3.0923    0.1510   -4.0020 C   0  0  0  0  0  0  0  0  0  0  0  0
    3.4572   -0.0367   -2.6530 O   0  0  0  0  0  0  0  0  0  0  0  0
    2.5002   -0.0225   -1.6967 C   0  0  0  0  0  0  0  0  0  0  0  0
    2.9597   -0.2109   -0.3845 C   0  0  0  0  0  0  0  0  0  0  0  0
    2.0438   -0.2104    0.6698 C   0  0  0  0  0  0  0  0  0  0  0  0
    2.3948   -0.3774    1.9643 O   0  0  0  0  0  0  0  0  0  0  0  0
    3.7583   -0.5138    2.3007 C   0  0  0  0  0  0  0  0  0  0  0  0
    0.6673   -0.0398    0.4181 C   0  0  0  0  0  0  0  0  0  0  0  0
   -0.4562    0.1384    1.8510 S   0  0  0  0  0  0  0  0  0  0  0  0
   -1.7624   -1.0028    1.2981 C   0  0  0  0  0  0  0  0  0  0  0  0
   -1.4246   -2.2754    0.8359 C   0  0  0  0  0  0  0  0  0  0  0  0
   -2.4336   -3.1632    0.4618 C   0  0  0  0  0  0  0  0  0  0  0  0
   -3.7700   -2.7622    0.5602 C   0  0  0  0  0  0  0  0  0  0  0  0
   -5.0372   -3.8677    0.0812 Cl  0  0  0  0  0  0  0  0  0  0  0  0
   -4.1067   -1.4927    1.0372 C   0  0  0  0  0  0  0  0  0  0  0  0
   -3.0921   -0.6113    1.4144 C   0  0  0  0  0  0  0  0  0  0  0  0
   -1.1321    1.6554    2.0210 C   0  0  0  0  0  0  0  0  0  0  0  0
   -1.2832    2.7448    0.9734 C   0  0  0  0  0  0  0  0  0  0  0  0
   -0.7855    3.7244    1.9033 O   0  0  0  0  0  0  0  0  0  0  0  0
   -0.5172    2.7308    2.9111 C   0  0  0  0  0  0  0  0  0  0  0  0
    0.2297    0.1722   -0.8990 C   0  0  0  0  0  0  0  0  0  0  0  0
   -1.0976    0.3636   -1.0595 O   0  0  0  0  0  0  0  0  0  0  0  0
   -1.6481    0.4987   -2.3496 C   0  0  0  0  0  0  0  0  0  0  0  0
    1.1386    0.1686   -1.9687 C   0  0  0  0  0  0  0  0  0  0  0  0
    2.6184    1.1357   -4.1652 H   0  0  0  0  0  0  0  0  0  0  0  0
    4.0206    0.1013   -4.5868 H   0  0  0  0  0  0  0  0  0  0  0  0
    2.4046   -0.6390   -4.3542 H   0  0  0  0  0  0  0  0  0  0  0  0
    4.0281   -0.3512   -0.2346 H   0  0  0  0  0  0  0  0  0  0  0  0
    4.3433    0.3712    1.9940 H   0  0  0  0  0  0  0  0  0  0  0  0
    4.2041   -1.4142    1.8416 H   0  0  0  0  0  0  0  0  0  0  0  0
    3.7996   -0.6108    3.3937 H   0  0  0  0  0  0  0  0  0  0  0  0
   -0.3769   -2.5731    0.7502 H   0  0  0  0  0  0  0  0  0  0  0  0
   -2.1920   -4.1625    0.0956 H   0  0  0  0  0  0  0  0  0  0  0  0
   -5.1561   -1.2012    1.1091 H   0  0  0  0  0  0  0  0  0  0  0  0
   -3.3042    0.3912    1.7970 H   0  0  0  0  0  0  0  0  0  0  0  0
   -2.3096    2.9885    0.6286 H   0  0  0  0  0  0  0  0  0  0  0  0
   -0.6355    2.6593    0.0750 H   0  0  0  0  0  0  0  0  0  0  0  0
    0.5659    2.6514    3.1447 H   0  0  0  0  0  0  0  0  0  0  0  0
   -1.0536    2.9602    3.8548 H   0  0  0  0  0  0  0  0  0  0  0  0
   -1.2692    1.4014   -2.8611 H   0  0  0  0  0  0  0  0  0  0  0  0
   -1.4390   -0.3876   -2.9742 H   0  0  0  0  0  0  0  0  0  0  0  0
   -2.7333    0.5926   -2.2121 H   0  0  0  0  0  0  0  0  0  0  0  0
    0.7893    0.3254   -2.9848 H   0  0  0  0  0  0  0  0  0  0  0  0
  2  1  1  0
  3  2  1  0
  4  3  2  0
  5  4  1  0
  6  5  1  0
  7  6  1  0
  8  5  2  0
  9  8  1  0
 10  9  1  0
 11 10  2  0
 12 11  1  0
 13 12  2  0
 14 13  1  0
 15 13  1  0
 16 15  2  0
 16 10  1  0
  9 17  1  6
 18 17  1  0
 19 18  1  0
 20 19  1  0
 20 17  1  0
 21  8  1  0
 22 21  1  0
 23 22  1  0
 24 21  2  0
 24  3  1  0
 25  1  1  0
 26  1  1  0
 27  1  1  0
 28  4  1  0
 29  7  1  0
 30  7  1  0
 31  7  1  0
 32 11  1  0
 33 12  1  0
 34 15  1  0
 35 16  1  0
 36 18  1  0
 37 18  1  0
 38 20  1  0
 39 20  1  0
 40 23  1  0
 41 23  1  0
 42 23  1  0
 43 24  1  0
M  CHG  2   9   1  17  -1
M  END
