
     RDKit          3D

 45 47  0  0  0  0  0  0  0  0999 V2000
    5.1846    0.1320   -0.4081 C   0  0  0  0  0  0  0  0  0  0  0  0
    4.2580    0.1141   -1.4689 O   0  0  0  0  0  0  0  0  0  0  0  0
    2.9329    0.0427   -1.1937 C   0  0  0  0  0  0  0  0  0  0  0  0
    2.4166   -0.0227    0.1070 C   0  0  0  0  0  0  0  0  0  0  0  0
    1.0241   -0.0884    0.2787 C   0  0  0  0  0  0  0  0  0  0  0  0
    0.4342   -0.1648    1.4911 O   0  0  0  0  0  0  0  0  0  0  0  0
    1.2078   -0.1064    2.6644 C   0  0  0  0  0  0  0  0  0  0  0  0
    0.1593   -0.0984   -0.8267 C   0  0  0  0  0  0  0  0  0  0  0  0
   -1.6594    0.0966   -0.6299 S   0  0  0  0  0  0  0  0  0  0  0  0
   -1.9538   -1.3344    0.4589 C   0  0  0  0  0  0  0  0  0  0  0  0
   -1.3661   -2.5668    0.1685 C   0  0  0  0  0  0  0  0  0  0  0  0
   -1.6661   -3.6705    0.9698 C   0  0  0  0  0  0  0  0  0  0  0  0
   -2.5452   -3.5388    2.0505 C   0  0  0  0  0  0  0  0  0  0  0  0
   -3.1310   -2.2988    2.3229 C   0  0  0  0  0  0  0  0  0  0  0  0
   -2.8416   -1.1911    1.5213 C   0  0  0  0  0  0  0  0  0  0  0  0
   -2.1269    1.4788    0.1781 C   0  0  0  0  0  0  0  0  0  0  0  0
   -1.4460    2.2541    1.2932 C   0  0  0  0  0  0  0  0  0  0  0  0
   -2.2614    3.4890    0.8117 C   0  0  0  0  0  0  0  0  0  0  0  0
   -2.6007    2.7527   -0.5195 C   0  0  0  0  0  0  0  0  0  0  0  0
    0.7030   -0.0301   -2.1245 C   0  0  0  0  0  0  0  0  0  0  0  0
   -0.1868   -0.0438   -3.1437 O   0  0  0  0  0  0  0  0  0  0  0  0
    0.2787    0.0635   -4.4698 C   0  0  0  0  0  0  0  0  0  0  0  0
    2.0864    0.0353   -2.3121 C   0  0  0  0  0  0  0  0  0  0  0  0
    6.1819    0.1953   -0.8643 H   0  0  0  0  0  0  0  0  0  0  0  0
    5.0367    1.0059    0.2521 H   0  0  0  0  0  0  0  0  0  0  0  0
    5.1285   -0.7877    0.2025 H   0  0  0  0  0  0  0  0  0  0  0  0
    3.0759   -0.0219    0.9700 H   0  0  0  0  0  0  0  0  0  0  0  0
    0.5002   -0.1607    3.5022 H   0  0  0  0  0  0  0  0  0  0  0  0
    1.7742    0.8398    2.7318 H   0  0  0  0  0  0  0  0  0  0  0  0
    1.9116   -0.9552    2.7329 H   0  0  0  0  0  0  0  0  0  0  0  0
   -0.6710   -2.6611   -0.6690 H   0  0  0  0  0  0  0  0  0  0  0  0
   -1.2109   -4.6398    0.7488 H   0  0  0  0  0  0  0  0  0  0  0  0
   -2.7752   -4.4044    2.6772 H   0  0  0  0  0  0  0  0  0  0  0  0
   -3.8193   -2.1919    3.1659 H   0  0  0  0  0  0  0  0  0  0  0  0
   -3.2856   -0.2067    1.6931 H   0  0  0  0  0  0  0  0  0  0  0  0
   -0.3554    2.4022    1.1503 H   0  0  0  0  0  0  0  0  0  0  0  0
   -1.6017    1.9222    2.3361 H   0  0  0  0  0  0  0  0  0  0  0  0
   -1.7075    4.4364    0.7190 H   0  0  0  0  0  0  0  0  0  0  0  0
   -3.1569    3.6605    1.4280 H   0  0  0  0  0  0  0  0  0  0  0  0
   -3.6542    2.7974   -0.8505 H   0  0  0  0  0  0  0  0  0  0  0  0
   -1.9688    3.1115   -1.3568 H   0  0  0  0  0  0  0  0  0  0  0  0
    0.9279   -0.7869   -4.7458 H   0  0  0  0  0  0  0  0  0  0  0  0
    0.8358    1.0035   -4.6322 H   0  0  0  0  0  0  0  0  0  0  0  0
   -0.6116    0.0580   -5.1128 H   0  0  0  0  0  0  0  0  0  0  0  0
    2.5452    0.0799   -3.2977 H   0  0  0  0  0  0  0  0  0  0  0  0
  2  1  1  0
  3  2  1  0
  4  3  2  0
  5  4  1  0
  6  5  1  0
  7  6  1  0
  8  5  2  0
  9  8  1  0
 10  9  1  0
 11 10  2  0
 12 11  1  0
 13 12  2  0
 14 13  1  0
 15 14  2  0
 15 10  1  0
  9 16  1  1
 17 16  1  0
 18 17  1  0
 19 18  1  0
 19 16  1  0
 20  8  1  0
 21 20  1  0
 22 21  1  0
 23 20  2  0
 23  3  1  0
 24  1  1  0
 25  1  1  0
 26  1  1  0
 27  4  1  0
 28  7  1  0
 29  7  1  0
 30  7  1  0
 31 11  1  0
 32 12  1  0
 33 13  1  0
 34 14  1  0
 35 15  1  0
 36 17  1  0
 37 17  1  0
 38 18  1  0
 39 18  1  0
 40 19  1  0
 41 19  1  0
 42 22  1  0
 43 22  1  0
 44 22  1  0
 45 23  1  0
M  CHG  2   9   1  16  -1
M  END
