
     RDKit          3D

 60 63  0  0  0  0  0  0  0  0999 V2000
   -1.5444    1.1518    3.8626 C   0  0  0  0  0  0  0  0  0  0  0  0
   -0.9012   -0.0477    3.4946 O   0  0  0  0  0  0  0  0  0  0  0  0
   -0.9267   -0.4395    2.1984 C   0  0  0  0  0  0  0  0  0  0  0  0
   -1.5027    0.3212    1.1751 C   0  0  0  0  0  0  0  0  0  0  0  0
   -1.4616   -0.1630   -0.1423 C   0  0  0  0  0  0  0  0  0  0  0  0
   -1.9162    0.5586   -1.1916 O   0  0  0  0  0  0  0  0  0  0  0  0
   -2.5275    1.8117   -0.9891 C   0  0  0  0  0  0  0  0  0  0  0  0
   -0.9144   -1.4257   -0.4284 C   0  0  0  0  0  0  0  0  0  0  0  0
   -0.5018   -2.0468   -2.0977 S   0  0  0  0  0  0  0  0  0  0  0  0
   -1.8514   -1.3886   -3.0876 C   0  0  0  0  0  0  0  0  0  0  0  0
   -3.1615   -1.7290   -2.7428 C   0  0  0  0  0  0  0  0  0  0  0  0
   -4.2202   -1.2695   -3.5232 C   0  0  0  0  0  0  0  0  0  0  0  0
   -3.9507   -0.4827   -4.6486 C   0  0  0  0  0  0  0  0  0  0  0  0
   -5.2773    0.1007   -5.6255 Cl  0  0  0  0  0  0  0  0  0  0  0  0
   -2.6384   -0.1637   -5.0055 C   0  0  0  0  0  0  0  0  0  0  0  0
   -1.5806   -0.6270   -4.2206 C   0  0  0  0  0  0  0  0  0  0  0  0
    0.9564   -1.3484   -2.7053 C   0  0  0  0  0  0  0  0  0  0  0  0
    1.4033   -0.0627   -1.9820 C   0  0  0  0  0  0  0  0  0  0  0  0
    2.1603   -0.9253   -1.0348 N   0  0  0  0  0  0  0  0  0  0  0  0
    3.5829   -0.4356   -0.2811 S   0  0  0  0  0  6  0  0  0  0  0  0
    4.0528   -1.6133    0.4638 O   0  0  0  0  0  0  0  0  0  0  0  0
    4.4887    0.2610   -1.2063 O   0  0  0  0  0  0  0  0  0  0  0  0
    2.9304    0.7758    0.8620 C   0  0  0  0  0  0  0  0  0  0  0  0
    2.8416    2.1125    0.4649 C   0  0  0  0  0  0  0  0  0  0  0  0
    2.3032    3.0454    1.3491 C   0  0  0  0  0  0  0  0  0  0  0  0
    1.8685    2.6646    2.6307 C   0  0  0  0  0  0  0  0  0  0  0  0
    1.3219    3.6966    3.5852 C   0  0  0  0  0  0  0  0  0  0  0  0
    1.9820    1.3172    3.0040 C   0  0  0  0  0  0  0  0  0  0  0  0
    2.5062    0.3687    2.1251 C   0  0  0  0  0  0  0  0  0  0  0  0
    2.1653   -2.0351   -2.0360 C   0  0  0  0  0  0  0  0  0  0  0  0
   -0.2982   -2.1498    0.6182 C   0  0  0  0  0  0  0  0  0  0  0  0
    0.3022   -3.3054    0.2646 O   0  0  0  0  0  0  0  0  0  0  0  0
    1.3342   -3.8321    1.0852 C   0  0  0  0  0  0  0  0  0  0  0  0
   -0.3133   -1.6683    1.9254 C   0  0  0  0  0  0  0  0  0  0  0  0
   -2.6242    1.1210    3.6313 H   0  0  0  0  0  0  0  0  0  0  0  0
   -1.0954    2.0271    3.3624 H   0  0  0  0  0  0  0  0  0  0  0  0
   -1.4144    1.2564    4.9482 H   0  0  0  0  0  0  0  0  0  0  0  0
   -1.9435    1.2907    1.3846 H   0  0  0  0  0  0  0  0  0  0  0  0
   -1.8287    2.5385   -0.5377 H   0  0  0  0  0  0  0  0  0  0  0  0
   -2.8268    2.1696   -1.9831 H   0  0  0  0  0  0  0  0  0  0  0  0
   -3.4248    1.7288   -0.3509 H   0  0  0  0  0  0  0  0  0  0  0  0
   -3.3595   -2.3341   -1.8547 H   0  0  0  0  0  0  0  0  0  0  0  0
   -5.2518   -1.5182   -3.2688 H   0  0  0  0  0  0  0  0  0  0  0  0
   -2.4496    0.4419   -5.8937 H   0  0  0  0  0  0  0  0  0  0  0  0
   -0.5378   -0.4161   -4.4703 H   0  0  0  0  0  0  0  0  0  0  0  0
    0.6477    0.5805   -1.5065 H   0  0  0  0  0  0  0  0  0  0  0  0
    2.0751    0.5561   -2.6064 H   0  0  0  0  0  0  0  0  0  0  0  0
    3.2103    2.4090   -0.5187 H   0  0  0  0  0  0  0  0  0  0  0  0
    2.2332    4.0944    1.0464 H   0  0  0  0  0  0  0  0  0  0  0  0
    0.9783    3.2397    4.5246 H   0  0  0  0  0  0  0  0  0  0  0  0
    2.0906    4.4460    3.8392 H   0  0  0  0  0  0  0  0  0  0  0  0
    0.4755    4.2473    3.1411 H   0  0  0  0  0  0  0  0  0  0  0  0
    1.6496    0.9992    3.9945 H   0  0  0  0  0  0  0  0  0  0  0  0
    2.6008   -0.6774    2.4158 H   0  0  0  0  0  0  0  0  0  0  0  0
    3.0659   -2.0052   -2.6784 H   0  0  0  0  0  0  0  0  0  0  0  0
    2.0529   -3.0409   -1.6078 H   0  0  0  0  0  0  0  0  0  0  0  0
    2.1540   -3.1033    1.1964 H   0  0  0  0  0  0  0  0  0  0  0  0
    1.7136   -4.7201    0.5622 H   0  0  0  0  0  0  0  0  0  0  0  0
    0.9543   -4.1433    2.0731 H   0  0  0  0  0  0  0  0  0  0  0  0
    0.1430   -2.2143    2.7482 H   0  0  0  0  0  0  0  0  0  0  0  0
  2  1  1  0
  3  2  1  0
  4  3  2  0
  5  4  1  0
  6  5  1  0
  7  6  1  0
  8  5  2  0
  9  8  1  0
 10  9  1  0
 11 10  2  0
 12 11  1  0
 13 12  2  0
 14 13  1  0
 15 13  1  0
 16 15  2  0
 16 10  1  0
  9 17  1  6
 18 17  1  0
 19 18  1  0
 20 19  1  0
 21 20  2  0
 22 20  2  0
 23 20  1  0
 24 23  2  0
 25 24  1  0
 26 25  2  0
 27 26  1  0
 28 26  1  0
 29 28  2  0
 29 23  1  0
 30 19  1  0
 30 17  1  0
 31  8  1  0
 32 31  1  0
 33 32  1  0
 34 31  2  0
 34  3  1  0
 35  1  1  0
 36  1  1  0
 37  1  1  0
 38  4  1  0
 39  7  1  0
 40  7  1  0
 41  7  1  0
 42 11  1  0
 43 12  1  0
 44 15  1  0
 45 16  1  0
 46 18  1  0
 47 18  1  0
 48 24  1  0
 49 25  1  0
 50 27  1  0
 51 27  1  0
 52 27  1  0
 53 28  1  0
 54 29  1  0
 55 30  1  0
 56 30  1  0
 57 33  1  0
 58 33  1  0
 59 33  1  0
 60 34  1  0
M  CHG  2   9   1  17  -1
M  END
